unknown|prepared_Mpro-x1077|sdf|1|dock1
  -GOLD-   5 72214353D 1   1.00000     0.00000

 28 29  0  0  0  0  0  0  0  0  1 V2000
   -8.4926   17.4508   65.5001 N   0  0  0  0  0  0  0  0  0  0  0  0
   -9.0737   17.0180   66.4045 C   0  0  0  0  0  0  0  0  0  0  0  0
   -9.8110   16.4929   67.5395 C   0  0  0  0  0  0  0  0  0  0  0  0
  -10.2075   15.1733   67.5419 C   0  0  0  0  0  0  0  0  0  0  0  0
  -10.9190   14.6655   68.6364 C   0  0  0  0  0  0  0  0  0  0  0  0
  -11.2126   15.4927   69.6956 C   0  0  0  0  0  0  0  0  0  0  0  0
  -10.8047   16.8002   69.6640 C   0  0  0  0  0  0  0  0  0  0  0  0
  -10.1122   17.2779   68.5888 N   0  0  0  0  0  0  0  0  0  0  0  0
  -11.9275   15.0070   70.8195 N   0  0  0  0  0  0  0  0  0  0  0  0
  -11.7144   15.7351   72.0296 C   0  0  0  0  0  0  0  0  0  0  0  0
  -12.6597   15.4446   73.1430 C   0  0  0  0  0  0  0  0  0  0  0  0
  -14.0571   15.0992   72.7142 C   0  0  0  0  0  0  0  0  0  0  0  0
  -14.2345   13.7436   72.4958 O   0  0  0  0  0  0  0  0  0  0  0  0
  -13.2060   13.1428   71.8164 C   0  0  0  0  0  0  0  0  0  0  0  0
  -12.7543   13.8627   70.5933 C   0  0  0  0  0  0  0  0  0  0  0  0
   -9.9620   14.5382   66.6896 H   0  0  0  0  0  0  0  0  0  0  0  0
  -11.2034   13.6388   68.5879 H   0  0  0  0  0  0  0  0  0  0  0  0
  -10.9846   17.5194   70.4404 H   0  0  0  0  0  0  0  0  0  0  0  0
  -10.6827   15.5706   72.3996 H   0  0  0  0  0  0  0  0  0  0  0  0
  -11.7977   16.8344   71.8188 H   0  0  0  0  0  0  0  0  0  0  0  0
  -12.7159   16.3030   73.8533 H   0  0  0  0  0  0  0  0  0  0  0  0
  -12.2864   14.5820   73.7707 H   0  0  0  0  0  0  0  0  0  0  0  0
  -14.7330   15.3735   73.5527 H   0  0  0  0  0  0  0  0  0  0  0  0
  -14.3936   15.7211   71.8496 H   0  0  0  0  0  0  0  0  0  0  0  0
  -12.3556   13.0002   72.4968 H   0  0  0  0  0  0  0  0  0  0  0  0
  -13.5905   12.1364   71.4740 H   0  0  0  0  0  0  0  0  0  0  0  0
  -13.5813   14.1698   69.9243 H   0  0  0  0  0  0  0  0  0  0  0  0
  -12.1760   13.0935   69.9959 H   0  0  0  0  0  0  0  0  0  0  0  0
  1  2  3  0  0  0  0
  2  3  1  0  0  0  0
  3  4  2  0  0  0  0
  4  5  1  0  0  0  0
  5  6  2  0  0  0  0
  6  7  1  0  0  0  0
  7  8  2  0  0  0  0
  6  9  1  0  0  0  0
  9 10  1  0  0  0  0
 10 11  1  0  0  0  0
 11 12  1  0  0  0  0
 12 13  1  0  0  0  0
 13 14  1  0  0  0  0
 14 15  1  0  0  0  0
  3  8  1  0  0  0  0
 15  9  1  0  0  0  0
  4 16  1  0  0  0  0
  5 17  1  0  0  0  0
  7 18  1  0  0  0  0
 10 19  1  0  0  0  0
 10 20  1  0  0  0  0
 11 21  1  0  0  0  0
 11 22  1  0  0  0  0
 12 23  1  0  0  0  0
 12 24  1  0  0  0  0
 14 25  1  0  0  0  0
 14 26  1  0  0  0  0
 15 27  1  0  0  0  0
 15 28  1  0  0  0  0
M  END
> <Gold.Version>
2022.1.0

> <Gold.Id.Protein>
6LU7|6LU7_protein|mol2

> <Gold.PLP.Fitness>
40.5541

> <Gold.PLP.PLP>
-38.2669

> <Gold.PLP.part.hbond>
-1.5261

> <Gold.PLP.part.metal>
0.0000

> <Gold.PLP.part.buried>
-6.2513

> <Gold.PLP.part.nonpolar>
-31.6985

> <Gold.PLP.part.repulsive>
0.2708

> <Gold.PLP.ligand.clash>
0.0303

> <Gold.PLP.ligand.torsion>
0.2442

> <Gold.PLP.Chemscore.Hbond>
0.8480

> <Gold.PLP.Chemscore.CHOScore>
0.0000

> <Gold.PLP.Chemscore.Metal>
0.0000

> <Gold.Chemscore.Hbonds>
donor molecule, donor type, donor heavy atom, donor atom, acceptor molecule, acceptor atom, score
      P1  H  1105  4261       L1     1  0.85

> <Gold.PLP.Chemscore.Internal.Correction>
0.2619

> <Gold.Protein.RotatedTorsions>
[ 3973 1471 1470 1467 ] final   99.69 input   60.00 | X-H torsion
[ 3372  414  413  411 ] final  109.76 input   60.00 | X-H torsion
[ 4268 1114 1113 1110 ] final  -82.12 input   59.99 | X-H torsion
[ 4409  924  923  921 ] final  158.86 input   59.99 | X-H torsion
[ 4183 1244 1243 1241 ] final   40.39 input   59.99 | X-H torsion
[ 3800  178  177  174 ] final -118.22 input   60.00 | X-H torsion
[ 3793  171  170  167 ] final   -6.07 input   60.00 | X-H torsion
[ 3576  185  184  181 ] final -115.05 input   60.00 | X-H torsion
[ 3523  346  345  342 ] final -151.29 input   60.01 | X-H torsion
[ 3515  339  338  335 ] final  -38.86 input   60.00 | X-H torsion
[ 3663  154  153  150 ] final  150.20 input   60.00 | X-H torsion
[ 4280 1130 1129 1126 ] final  176.73 input   60.00 | X-H torsion

> <Gold.Protein.ActiveResidues>
 VAL20   THR21   CYS22   GLY23   THR24   THR25   THR26   LEU27   ASN28   PRO39  
 ARG40   HIS41   VAL42   CYS44   THR45   SER46   ASP48   MET49   LEU50   PRO52  
 TYR54   TYR118  ASN119  ILE136  GLY138  SER139  PHE140  LEU141  ASN142  GLY143 
 SER144  CYS145  GLY146  SER147  TYR161  HIS163  HIS164  MET165  GLU166  LEU167 
 PRO168  THR169  GLY170  VAL171  HIS172  ALA173  PHE181  PHE185  VAL186  ASP187 
 ARG188  GLN189  THR190  ALA191  GLN192  ALA193 

> <Gold.Protein.RotatedAtoms>
  -14.1322   17.3401   76.3453 H   0  0  0  0  0  0  0  0  0  0  0  0  # atno 3372 bound_to 414 
   -3.3865   20.4737   74.8221 H   0  0  0  0  0  0  0  0  0  0  0  0  # atno 3515 bound_to 339 
   -2.1182   16.9309   72.6655 H   0  0  0  0  0  0  0  0  0  0  0  0  # atno 3523 bound_to 346 
   -7.5574   25.2365   63.0922 H   0  0  0  0  0  0  0  0  0  0  0  0  # atno 3576 bound_to 185 
   -7.2065   29.8924   64.9989 H   0  0  0  0  0  0  0  0  0  0  0  0  # atno 3663 bound_to 154 
   -3.4747   24.6376   72.2625 H   0  0  0  0  0  0  0  0  0  0  0  0  # atno 3793 bound_to 171 
   -7.2991   22.3247   71.8036 H   0  0  0  0  0  0  0  0  0  0  0  0  # atno 3800 bound_to 178 
  -15.6292    7.3233   77.7884 H   0  0  0  0  0  0  0  0  0  0  0  0  # atno 3973 bound_to 1471
  -21.0288   12.4175   63.8453 H   0  0  0  0  0  0  0  0  0  0  0  0  # atno 4183 bound_to 1244
  -12.3945   15.6470   61.6290 H   0  0  0  0  0  0  0  0  0  0  0  0  # atno 4268 bound_to 1114
  -15.8526   18.5991   58.5757 H   0  0  0  0  0  0  0  0  0  0  0  0  # atno 4280 bound_to 1130
  -10.5948   14.9663   57.7649 H   0  0  0  0  0  0  0  0  0  0  0  0  # atno 4409 bound_to 924 
  -14.9876    8.4895   76.8523 LP  0  0  0  0  0  0  0  0  0  0  0  0  # atno 4696 bound_to 1471
  -15.4154    8.8187   78.3934 LP  0  0  0  0  0  0  0  0  0  0  0  0  # atno 4697 bound_to 1471
  -14.4205   18.3476   75.1004 LP  0  0  0  0  0  0  0  0  0  0  0  0  # atno 4731 bound_to 414 
  -15.5473   17.2532   75.5467 LP  0  0  0  0  0  0  0  0  0  0  0  0  # atno 4732 bound_to 414 
  -13.7382   15.2745   60.7901 LP  0  0  0  0  0  0  0  0  0  0  0  0  # atno 4733 bound_to 1114
  -13.7882   16.4235   61.9494 LP  0  0  0  0  0  0  0  0  0  0  0  0  # atno 4734 bound_to 1114
  -11.1413   15.1004   56.2381 LP  0  0  0  0  0  0  0  0  0  0  0  0  # atno 4763 bound_to 924 
  -12.1335   15.4215   57.4946 LP  0  0  0  0  0  0  0  0  0  0  0  0  # atno 4764 bound_to 924 
  -20.3237   13.7330   64.4936 LP  0  0  0  0  0  0  0  0  0  0  0  0  # atno 4771 bound_to 1244
  -20.0100   13.3136   62.9469 LP  0  0  0  0  0  0  0  0  0  0  0  0  # atno 4772 bound_to 1244
   -7.2619   23.7965   72.4967 LP  0  0  0  0  0  0  0  0  0  0  0  0  # atno 4775 bound_to 178 
   -6.0517   23.3265   71.5062 LP  0  0  0  0  0  0  0  0  0  0  0  0  # atno 4776 bound_to 178 
   -1.9069   24.5513   72.6898 LP  0  0  0  0  0  0  0  0  0  0  0  0  # atno 4779 bound_to 171 
   -2.5741   23.3715   71.7790 LP  0  0  0  0  0  0  0  0  0  0  0  0  # atno 4780 bound_to 171 
   -7.5735   26.7923   63.5687 LP  0  0  0  0  0  0  0  0  0  0  0  0  # atno 4783 bound_to 185 
   -8.8234   25.8089   63.9393 LP  0  0  0  0  0  0  0  0  0  0  0  0  # atno 4784 bound_to 185 
   -2.4035   18.4461   73.1860 LP  0  0  0  0  0  0  0  0  0  0  0  0  # atno 4785 bound_to 346 
   -3.6465   17.4847   72.7418 LP  0  0  0  0  0  0  0  0  0  0  0  0  # atno 4786 bound_to 346 
   -2.6378   21.6188   75.7031 LP  0  0  0  0  0  0  0  0  0  0  0  0  # atno 4787 bound_to 339 
   -3.4424   22.0276   74.3422 LP  0  0  0  0  0  0  0  0  0  0  0  0  # atno 4788 bound_to 339 
   -8.5839   29.0576   65.2313 LP  0  0  0  0  0  0  0  0  0  0  0  0  # atno 4797 bound_to 154 
   -7.1388   28.3429   65.4915 LP  0  0  0  0  0  0  0  0  0  0  0  0  # atno 4798 bound_to 154 

$$$$
