unknown|prepared_Mpro-x0426|sdf|1|dock3
  -GOLD-   5 72214353D 1   1.00000     0.00000

 31 32  0  0  0  0  0  0  0  0  1 V2000
   -9.1487   12.0478   66.4035 F   0  0  0  0  0  0  0  0  0  0  0  0
  -10.3146   12.2174   65.7346 C   0  0  0  0  0  0  0  0  0  0  0  0
  -10.3495   11.6080   64.4850 C   0  0  0  0  0  0  0  0  0  0  0  0
  -11.4725   11.7146   63.7271 C   0  0  0  0  0  0  0  0  0  0  0  0
  -12.5510   12.4192   64.2036 C   0  0  0  0  0  0  0  0  0  0  0  0
  -12.4985   13.0162   65.4433 C   0  0  0  0  0  0  0  0  0  0  0  0
  -11.3603   12.9255   66.2465 C   0  0  0  0  0  0  0  0  0  0  0  0
  -11.3402   13.5581   67.5300 C   0  0  0  0  0  0  0  0  0  0  0  0
  -12.3282   13.3307   68.3233 O   0  0  0  0  0  0  0  0  0  0  0  0
  -10.3590   14.4248   68.0684 N   0  0  0  0  0  0  0  0  0  0  0  0
  -10.4886   14.9898   69.4008 C   0  0  0  0  0  0  0  0  0  0  0  0
  -11.7877   15.6789   69.6564 C   0  0  0  0  0  0  0  0  0  0  0  0
  -12.2935   15.3755   71.0169 C   0  0  0  0  0  0  0  0  0  0  0  0
  -13.3270   14.5087   71.2458 C   0  0  0  0  0  0  0  0  0  0  0  0
  -13.7483   14.2746   72.5353 C   0  0  0  0  0  0  0  0  0  0  0  0
  -13.1549   14.8884   73.5705 N   0  0  0  0  0  0  0  0  0  0  0  0
  -12.1422   15.7423   73.3919 C   0  0  0  0  0  0  0  0  0  0  0  0
  -11.7008   15.9929   72.0947 C   0  0  0  0  0  0  0  0  0  0  0  0
   -9.4875   11.0473   64.1089 H   0  0  0  0  0  0  0  0  0  0  0  0
  -11.4958   11.2353   62.7479 H   0  0  0  0  0  0  0  0  0  0  0  0
  -13.4490   12.5117   63.6120 H   0  0  0  0  0  0  0  0  0  0  0  0
  -13.3760   13.5576   65.7676 H   0  0  0  0  0  0  0  0  0  0  0  0
   -9.5334   14.6501   67.4804 H   0  0  0  0  0  0  0  0  0  0  0  0
   -9.6807   15.7343   69.5381 H   0  0  0  0  0  0  0  0  0  0  0  0
  -10.3142   14.2140   70.1884 H   0  0  0  0  0  0  0  0  0  0  0  0
  -12.5423   15.2781   68.9346 H   0  0  0  0  0  0  0  0  0  0  0  0
  -11.7683   16.7742   69.4773 H   0  0  0  0  0  0  0  0  0  0  0  0
  -13.8242   13.9966   70.4152 H   0  0  0  0  0  0  0  0  0  0  0  0
  -14.5812   13.5730   72.6878 H   0  0  0  0  0  0  0  0  0  0  0  0
  -11.6371   16.2575   74.1996 H   0  0  0  0  0  0  0  0  0  0  0  0
  -10.8758   16.6898   71.9629 H   0  0  0  0  0  0  0  0  0  0  0  0
  1  2  1  0  0  0  0
  2  3  2  0  0  0  0
  3  4  1  0  0  0  0
  4  5  2  0  0  0  0
  5  6  1  0  0  0  0
  6  7  2  0  0  0  0
  7  8  1  0  0  0  0
  8  9  2  0  0  0  0
  8 10  1  0  0  0  0
 10 11  1  0  0  0  0
 11 12  1  0  0  0  0
 12 13  1  0  0  0  0
 13 14  2  0  0  0  0
 14 15  1  0  0  0  0
 15 16  2  0  0  0  0
 16 17  1  0  0  0  0
 17 18  2  0  0  0  0
  2  7  1  0  0  0  0
 13 18  1  0  0  0  0
  3 19  1  0  0  0  0
  4 20  1  0  0  0  0
  5 21  1  0  0  0  0
  6 22  1  0  0  0  0
 10 23  1  0  0  0  0
 11 24  1  0  0  0  0
 11 25  1  0  0  0  0
 12 26  1  0  0  0  0
 12 27  1  0  0  0  0
 14 28  1  0  0  0  0
 15 29  1  0  0  0  0
 17 30  1  0  0  0  0
 18 31  1  0  0  0  0
M  END
> <Gold.Version>
2022.1.0

> <Gold.Id.Protein>
6LU7|6LU7_protein|mol2

> <Gold.PLP.Fitness>
46.8072

> <Gold.PLP.PLP>
-49.5372

> <Gold.PLP.part.hbond>
0.0000

> <Gold.PLP.part.metal>
0.0000

> <Gold.PLP.part.buried>
-6.8064

> <Gold.PLP.part.nonpolar>
-43.6865

> <Gold.PLP.part.repulsive>
0.2554

> <Gold.PLP.ligand.clash>
0.0000

> <Gold.PLP.ligand.torsion>
1.3980

> <Gold.PLP.Chemscore.Hbond>
0.0000

> <Gold.PLP.Chemscore.CHOScore>
0.0000

> <Gold.PLP.Chemscore.Metal>
0.0000

> <Gold.PLP.Chemscore.Internal.Correction>
0.0660

> <Gold.Protein.RotatedTorsions>
[ 3973 1471 1470 1467 ] final  131.16 input   60.00 | X-H torsion
[ 3372  414  413  411 ] final  -10.05 input   60.00 | X-H torsion
[ 4268 1114 1113 1110 ] final  112.66 input   59.99 | X-H torsion
[ 4409  924  923  921 ] final   44.31 input   59.99 | X-H torsion
[ 4183 1244 1243 1241 ] final  -94.54 input   59.99 | X-H torsion
[ 3800  178  177  174 ] final   87.95 input   60.00 | X-H torsion
[ 3793  171  170  167 ] final   13.75 input   60.00 | X-H torsion
[ 3576  185  184  181 ] final  -38.38 input   60.00 | X-H torsion
[ 3523  346  345  342 ] final   63.06 input   60.01 | X-H torsion
[ 3515  339  338  335 ] final   42.70 input   60.00 | X-H torsion
[ 3663  154  153  150 ] final  169.00 input   60.00 | X-H torsion
[ 4280 1130 1129 1126 ] final  -21.24 input   60.00 | X-H torsion

> <Gold.Protein.ActiveResidues>
 VAL20   THR21   CYS22   GLY23   THR24   THR25   THR26   LEU27   ASN28   PRO39  
 ARG40   HIS41   VAL42   CYS44   THR45   SER46   ASP48   MET49   LEU50   PRO52  
 TYR54   TYR118  ASN119  ILE136  GLY138  SER139  PHE140  LEU141  ASN142  GLY143 
 SER144  CYS145  GLY146  SER147  TYR161  HIS163  HIS164  MET165  GLU166  LEU167 
 PRO168  THR169  GLY170  VAL171  HIS172  ALA173  PHE181  PHE185  VAL186  ASP187 
 ARG188  GLN189  THR190  ALA191  GLN192  ALA193 

> <Gold.Protein.RotatedAtoms>
  -14.4207   18.3444   75.1073 H   0  0  0  0  0  0  0  0  0  0  0  0  # atno 3372 bound_to 414 
   -3.6473   21.4715   74.1649 H   0  0  0  0  0  0  0  0  0  0  0  0  # atno 3515 bound_to 339 
   -2.8174   18.4970   73.1742 H   0  0  0  0  0  0  0  0  0  0  0  0  # atno 3523 bound_to 346 
   -8.5821   25.2321   63.6386 H   0  0  0  0  0  0  0  0  0  0  0  0  # atno 3576 bound_to 185 
   -6.9627   29.7181   65.0599 H   0  0  0  0  0  0  0  0  0  0  0  0  # atno 3663 bound_to 154 
   -3.5557   24.3816   72.0843 H   0  0  0  0  0  0  0  0  0  0  0  0  # atno 3793 bound_to 171 
   -6.7959   24.0055   72.3015 H   0  0  0  0  0  0  0  0  0  0  0  0  # atno 3800 bound_to 178 
  -15.7152    7.5520   78.2336 H   0  0  0  0  0  0  0  0  0  0  0  0  # atno 3973 bound_to 1471
  -20.1800   13.8441   64.3303 H   0  0  0  0  0  0  0  0  0  0  0  0  # atno 4183 bound_to 1244
  -14.1770   15.7454   61.1183 H   0  0  0  0  0  0  0  0  0  0  0  0  # atno 4268 bound_to 1114
  -16.2293   20.3992   58.7708 H   0  0  0  0  0  0  0  0  0  0  0  0  # atno 4280 bound_to 1130
  -11.0583   15.0782   56.2637 H   0  0  0  0  0  0  0  0  0  0  0  0  # atno 4409 bound_to 924 
  -15.1060    7.9957   76.7914 LP  0  0  0  0  0  0  0  0  0  0  0  0  # atno 4696 bound_to 1471
  -15.2105    9.0822   78.0060 LP  0  0  0  0  0  0  0  0  0  0  0  0  # atno 4697 bound_to 1471
  -15.5479   17.2551   75.5443 LP  0  0  0  0  0  0  0  0  0  0  0  0  # atno 4731 bound_to 414 
  -14.1294   17.3343   76.3494 LP  0  0  0  0  0  0  0  0  0  0  0  0  # atno 4732 bound_to 414 
  -13.0922   16.3851   62.1488 LP  0  0  0  0  0  0  0  0  0  0  0  0  # atno 4733 bound_to 1114
  -12.6390   15.2138   61.1050 LP  0  0  0  0  0  0  0  0  0  0  0  0  # atno 4734 bound_to 1114
  -12.1599   15.4279   57.4092 LP  0  0  0  0  0  0  0  0  0  0  0  0  # atno 4763 bound_to 924 
  -10.6481   14.9812   57.8354 LP  0  0  0  0  0  0  0  0  0  0  0  0  # atno 4764 bound_to 924 
  -20.1303   13.1114   62.8782 LP  0  0  0  0  0  0  0  0  0  0  0  0  # atno 4771 bound_to 1244
  -21.0582   12.4984   64.0739 LP  0  0  0  0  0  0  0  0  0  0  0  0  # atno 4772 bound_to 1244
   -6.2030   22.8208   71.3565 LP  0  0  0  0  0  0  0  0  0  0  0  0  # atno 4775 bound_to 178 
   -7.6172   22.6095   72.1451 LP  0  0  0  0  0  0  0  0  0  0  0  0  # atno 4776 bound_to 178 
   -2.1288   24.7781   72.7585 LP  0  0  0  0  0  0  0  0  0  0  0  0  # atno 4779 bound_to 171 
   -2.2706   23.4026   71.8899 LP  0  0  0  0  0  0  0  0  0  0  0  0  # atno 4780 bound_to 171 
   -7.1771   25.8160   63.0614 LP  0  0  0  0  0  0  0  0  0  0  0  0  # atno 4783 bound_to 185 
   -8.1879   26.7897   63.8962 LP  0  0  0  0  0  0  0  0  0  0  0  0  # atno 4784 bound_to 185 
   -3.4828   17.1182   72.6228 LP  0  0  0  0  0  0  0  0  0  0  0  0  # atno 4785 bound_to 346 
   -1.8630   17.2354   72.7927 LP  0  0  0  0  0  0  0  0  0  0  0  0  # atno 4786 bound_to 346 
   -3.0473   20.5163   75.3377 LP  0  0  0  0  0  0  0  0  0  0  0  0  # atno 4787 bound_to 339 
   -2.7702   22.1253   75.3695 LP  0  0  0  0  0  0  0  0  0  0  0  0  # atno 4788 bound_to 339 
   -8.5456   29.3490   65.1393 LP  0  0  0  0  0  0  0  0  0  0  0  0  # atno 4797 bound_to 154 
   -7.4226   28.2270   65.5220 LP  0  0  0  0  0  0  0  0  0  0  0  0  # atno 4798 bound_to 154 

$$$$
