unknown|prepared_Mpro-x0540|sdf|1|dock2
  -GOLD-   5 72214353D 1   1.00000     0.00000

 39 40  0  0  0  0  0  0  0  0  1 V2000
  -11.1387   15.4402   68.6560 O   0  0  0  0  0  0  0  0  0  0  0  0
  -10.4373   14.7415   69.4073 C   0  0  0  0  0  0  0  0  0  0  0  0
   -9.0462   14.6060   69.2626 N   0  0  0  0  0  0  0  0  0  0  0  0
   -8.3538   15.2797   68.2073 C   0  0  0  0  0  0  0  0  0  0  0  0
   -8.1015   16.6977   68.5880 C   0  0  0  0  0  0  0  0  0  0  0  0
   -7.7292   17.5444   67.4197 C   0  0  0  0  0  0  0  0  0  0  0  0
   -6.7008   17.2260   66.5636 C   0  0  0  0  0  0  0  0  0  0  0  0
   -6.4239   18.0809   65.4937 C   0  0  0  0  0  0  0  0  0  0  0  0
   -7.1342   19.1917   65.2902 N   0  0  0  0  0  0  0  0  0  0  0  0
   -8.1481   19.5371   66.1064 C   0  0  0  0  0  0  0  0  0  0  0  0
   -8.4429   18.6979   67.1820 C   0  0  0  0  0  0  0  0  0  0  0  0
  -11.1303   14.0561   70.4637 N   0  0  0  0  0  0  0  0  0  0  0  0
  -12.5600   14.1797   70.6331 C   0  0  0  0  0  0  0  0  0  0  0  0
  -12.9256   15.5992   70.9541 C   0  0  0  0  0  0  0  0  0  0  0  0
  -12.2744   15.9546   72.2577 C   0  0  0  0  0  0  0  0  0  0  0  0
  -12.8764   15.1277   73.3530 C   0  0  0  0  0  0  0  0  0  0  0  0
  -13.5995   13.9184   72.9106 C   0  0  0  0  0  0  0  0  0  0  0  0
  -13.0712   13.2489   71.6861 C   0  0  0  0  0  0  0  0  0  0  0  0
   -8.5255   14.0097   69.9324 H   0  0  0  0  0  0  0  0  0  0  0  0
   -7.4059   14.7528   67.9182 H   0  0  0  0  0  0  0  0  0  0  0  0
   -9.0142   15.2813   67.3006 H   0  0  0  0  0  0  0  0  0  0  0  0
   -7.3284   16.7890   69.3520 H   0  0  0  0  0  0  0  0  0  0  0  0
   -9.0596   17.0940   69.0285 H   0  0  0  0  0  0  0  0  0  0  0  0
   -6.1430   16.3398   66.7359 H   0  0  0  0  0  0  0  0  0  0  0  0
   -5.6133   17.8342   64.8150 H   0  0  0  0  0  0  0  0  0  0  0  0
   -8.6948   20.4414   65.9056 H   0  0  0  0  0  0  0  0  0  0  0  0
   -9.2605   19.0090   67.8109 H   0  0  0  0  0  0  0  0  0  0  0  0
  -10.5626   13.4552   71.1136 H   0  0  0  0  0  0  0  0  0  0  0  0
  -13.0269   13.9620   69.6238 H   0  0  0  0  0  0  0  0  0  0  0  0
  -12.6257   16.2773   70.1296 H   0  0  0  0  0  0  0  0  0  0  0  0
  -14.0290   15.6920   71.1007 H   0  0  0  0  0  0  0  0  0  0  0  0
  -11.1849   15.8558   72.1718 H   0  0  0  0  0  0  0  0  0  0  0  0
  -12.4415   17.0600   72.4487 H   0  0  0  0  0  0  0  0  0  0  0  0
  -12.0347   14.8794   74.0632 H   0  0  0  0  0  0  0  0  0  0  0  0
  -13.5554   15.7836   73.9371 H   0  0  0  0  0  0  0  0  0  0  0  0
  -14.6995   14.1281   72.7689 H   0  0  0  0  0  0  0  0  0  0  0  0
  -13.5668   13.1679   73.7376 H   0  0  0  0  0  0  0  0  0  0  0  0
  -12.2650   12.5233   71.9249 H   0  0  0  0  0  0  0  0  0  0  0  0
  -13.8970   12.6559   71.2403 H   0  0  0  0  0  0  0  0  0  0  0  0
  1  2  2  0  0  0  0
  2  3  1  0  0  0  0
  3  4  1  0  0  0  0
  4  5  1  0  0  0  0
  5  6  1  0  0  0  0
  6  7  2  0  0  0  0
  7  8  1  0  0  0  0
  8  9  2  0  0  0  0
  9 10  1  0  0  0  0
 10 11  2  0  0  0  0
  2 12  1  0  0  0  0
 12 13  1  0  0  0  0
 13 14  1  0  0  0  0
 14 15  1  0  0  0  0
 15 16  1  0  0  0  0
 16 17  1  0  0  0  0
 17 18  1  0  0  0  0
  6 11  1  0  0  0  0
 18 13  1  0  0  0  0
  3 19  1  0  0  0  0
  4 20  1  0  0  0  0
  4 21  1  0  0  0  0
  5 22  1  0  0  0  0
  5 23  1  0  0  0  0
  7 24  1  0  0  0  0
  8 25  1  0  0  0  0
 10 26  1  0  0  0  0
 11 27  1  0  0  0  0
 12 28  1  0  0  0  0
 13 29  1  0  0  0  0
 14 30  1  0  0  0  0
 14 31  1  0  0  0  0
 15 32  1  0  0  0  0
 15 33  1  0  0  0  0
 16 34  1  0  0  0  0
 16 35  1  0  0  0  0
 17 36  1  0  0  0  0
 17 37  1  0  0  0  0
 18 38  1  0  0  0  0
 18 39  1  0  0  0  0
M  END
> <Gold.Version>
2022.1.0

> <Gold.Id.Protein>
6LU7|6LU7_protein|mol2

> <Gold.PLP.Fitness>
47.0294

> <Gold.PLP.PLP>
-39.8557

> <Gold.PLP.part.hbond>
-2.5458

> <Gold.PLP.part.metal>
0.0000

> <Gold.PLP.part.buried>
-4.8447

> <Gold.PLP.part.nonpolar>
-32.8636

> <Gold.PLP.part.repulsive>
0.1834

> <Gold.PLP.ligand.clash>
0.0000

> <Gold.PLP.ligand.torsion>
0.2799

> <Gold.PLP.Chemscore.Hbond>
1.5621

> <Gold.PLP.Chemscore.CHOScore>
1.0000

> <Gold.PLP.Chemscore.Metal>
0.0000

> <Gold.Chemscore.Hbonds>
donor molecule, donor type, donor heavy atom, donor atom, acceptor molecule, acceptor atom, score
      L1  H     3    19       P1  1464  0.56
      L1  H    12    28       P1  1464  1.00
      L1  C    10    26       P1   183  1.00

> <Gold.PLP.Chemscore.Internal.Correction>
0.0471

> <Gold.Protein.RotatedTorsions>
[ 3973 1471 1470 1467 ] final  -40.68 input   60.00 | X-H torsion
[ 3372  414  413  411 ] final -166.22 input   60.00 | X-H torsion
[ 4268 1114 1113 1110 ] final  149.10 input   59.99 | X-H torsion
[ 4409  924  923  921 ] final -108.85 input   59.99 | X-H torsion
[ 4183 1244 1243 1241 ] final   52.06 input   59.99 | X-H torsion
[ 3800  178  177  174 ] final   26.23 input   60.00 | X-H torsion
[ 3793  171  170  167 ] final  157.96 input   60.00 | X-H torsion
[ 3576  185  184  181 ] final -179.72 input   60.00 | X-H torsion
[ 3523  346  345  342 ] final  -94.69 input   60.01 | X-H torsion
[ 3515  339  338  335 ] final -131.51 input   60.00 | X-H torsion
[ 3663  154  153  150 ] final   69.31 input   60.00 | X-H torsion
[ 4280 1130 1129 1126 ] final   83.78 input   60.00 | X-H torsion

> <Gold.Protein.ActiveResidues>
 VAL20   THR21   CYS22   GLY23   THR24   THR25   THR26   LEU27   ASN28   PRO39  
 ARG40   HIS41   VAL42   CYS44   THR45   SER46   ASP48   MET49   LEU50   PRO52  
 TYR54   TYR118  ASN119  ILE136  GLY138  SER139  PHE140  LEU141  ASN142  GLY143 
 SER144  CYS145  GLY146  SER147  TYR161  HIS163  HIS164  MET165  GLU166  LEU167 
 PRO168  THR169  GLY170  VAL171  HIS172  ALA173  PHE181  PHE185  VAL186  ASP187 
 ARG188  GLN189  THR190  ALA191  GLN192  ALA193 

> <Gold.Protein.RotatedAtoms>
  -15.2827   16.9912   75.9919 H   0  0  0  0  0  0  0  0  0  0  0  0  # atno 3372 bound_to 414 
   -2.6860   21.1789   75.7419 H   0  0  0  0  0  0  0  0  0  0  0  0  # atno 3515 bound_to 339 
   -2.9843   16.7798   72.5427 H   0  0  0  0  0  0  0  0  0  0  0  0  # atno 3523 bound_to 346 
   -7.1533   26.1508   63.1528 H   0  0  0  0  0  0  0  0  0  0  0  0  # atno 3576 bound_to 185 
   -8.3911   29.6300   65.0557 H   0  0  0  0  0  0  0  0  0  0  0  0  # atno 3663 bound_to 154 
   -1.9691   23.5710   72.0798 H   0  0  0  0  0  0  0  0  0  0  0  0  # atno 3793 bound_to 171 
   -6.1223   23.6610   71.7100 H   0  0  0  0  0  0  0  0  0  0  0  0  # atno 3800 bound_to 178 
  -14.9668    8.7690   77.0307 H   0  0  0  0  0  0  0  0  0  0  0  0  # atno 3973 bound_to 1471
  -20.9806   12.3841   63.6643 H   0  0  0  0  0  0  0  0  0  0  0  0  # atno 4183 bound_to 1244
  -13.8520   15.3537   60.8287 H   0  0  0  0  0  0  0  0  0  0  0  0  # atno 4268 bound_to 1114
  -15.5443   19.3984   59.6289 H   0  0  0  0  0  0  0  0  0  0  0  0  # atno 4280 bound_to 1130
  -11.8838   15.3555   57.8632 H   0  0  0  0  0  0  0  0  0  0  0  0  # atno 4409 bound_to 924 
  -15.5408    8.5451   78.5368 LP  0  0  0  0  0  0  0  0  0  0  0  0  # atno 4696 bound_to 1471
  -15.5294    7.3072   77.4719 LP  0  0  0  0  0  0  0  0  0  0  0  0  # atno 4697 bound_to 1471
  -13.8540   17.7666   76.0668 LP  0  0  0  0  0  0  0  0  0  0  0  0  # atno 4731 bound_to 414 
  -14.9552   18.1854   74.9361 LP  0  0  0  0  0  0  0  0  0  0  0  0  # atno 4732 bound_to 414 
  -13.6636   16.4485   62.0178 LP  0  0  0  0  0  0  0  0  0  0  0  0  # atno 4733 bound_to 1114
  -12.3949   15.5448   61.5276 LP  0  0  0  0  0  0  0  0  0  0  0  0  # atno 4734 bound_to 1114
  -10.4042   14.8993   57.3628 LP  0  0  0  0  0  0  0  0  0  0  0  0  # atno 4763 bound_to 924 
  -11.5724   15.2306   56.2709 LP  0  0  0  0  0  0  0  0  0  0  0  0  # atno 4764 bound_to 924 
  -20.4456   13.6157   64.5835 LP  0  0  0  0  0  0  0  0  0  0  0  0  # atno 4771 bound_to 1244
  -19.9367   13.4645   63.0392 LP  0  0  0  0  0  0  0  0  0  0  0  0  # atno 4772 bound_to 1244
   -6.9732   22.2800   71.5796 LP  0  0  0  0  0  0  0  0  0  0  0  0  # atno 4775 bound_to 178 
   -7.5254   23.4972   72.5177 LP  0  0  0  0  0  0  0  0  0  0  0  0  # atno 4776 bound_to 178 
   -3.5164   24.0391   71.8934 LP  0  0  0  0  0  0  0  0  0  0  0  0  # atno 4779 bound_to 171 
   -2.4810   24.9580   72.7595 LP  0  0  0  0  0  0  0  0  0  0  0  0  # atno 4780 bound_to 171 
   -8.4702   26.6081   63.9922 LP  0  0  0  0  0  0  0  0  0  0  0  0  # atno 4783 bound_to 185 
   -8.3337   25.0722   63.4547 LP  0  0  0  0  0  0  0  0  0  0  0  0  # atno 4784 bound_to 185 
   -1.8076   17.8056   73.0024 LP  0  0  0  0  0  0  0  0  0  0  0  0  # atno 4785 bound_to 346 
   -3.3702   18.2774   73.0490 LP  0  0  0  0  0  0  0  0  0  0  0  0  # atno 4786 bound_to 346 
   -3.2118   22.2597   74.6450 LP  0  0  0  0  0  0  0  0  0  0  0  0  # atno 4787 bound_to 339 
   -3.5738   20.6766   74.4740 LP  0  0  0  0  0  0  0  0  0  0  0  0  # atno 4788 bound_to 339 
   -7.7543   28.2066   65.5210 LP  0  0  0  0  0  0  0  0  0  0  0  0  # atno 4797 bound_to 154 
   -6.7754   29.4582   65.1446 LP  0  0  0  0  0  0  0  0  0  0  0  0  # atno 4798 bound_to 154 

$$$$
