unknown|prepared_Mpro-x1249|sdf|1|dock1
  -GOLD-   5 72214353D 1   1.00000     0.00000

 33 34  0  0  0  0  0  0  0  0  1 V2000
  -12.0685   14.4881   68.7679 O   0  0  0  0  0  0  0  0  0  0  0  0
  -11.6731   15.2948   69.6693 C   0  0  0  0  0  0  0  0  0  0  0  0
  -10.8974   16.3878   69.2441 N   0  0  0  0  0  0  0  0  0  0  0  0
  -10.5192   16.6456   67.8695 C   0  0  0  0  0  0  0  0  0  0  0  0
   -9.6115   17.7989   67.7101 C   0  0  0  0  0  0  0  0  0  0  0  0
   -8.3469   17.5730   67.1558 C   0  0  0  0  0  0  0  0  0  0  0  0
   -7.4513   18.6113   66.9800 C   0  0  0  0  0  0  0  0  0  0  0  0
   -7.7925   19.9179   67.3542 C   0  0  0  0  0  0  0  0  0  0  0  0
   -6.8418   20.9901   67.1546 C   0  0  0  0  0  0  0  0  0  0  0  0
   -6.0677   21.8330   66.9983 N   0  0  0  0  0  0  0  0  0  0  0  0
   -9.0356   20.1488   67.9006 C   0  0  0  0  0  0  0  0  0  0  0  0
   -9.9215   19.0870   68.0689 C   0  0  0  0  0  0  0  0  0  0  0  0
  -12.0578   15.0023   71.0019 N   0  0  0  0  0  0  0  0  0  0  0  0
  -12.8633   13.8234   71.2460 C   0  0  0  0  0  0  0  0  0  0  0  0
  -13.8497   14.0615   72.3689 C   0  0  0  0  0  0  0  0  0  0  0  0
  -13.2082   14.5964   73.4887 O   0  0  0  0  0  0  0  0  0  0  0  0
  -12.8365   15.8996   73.1088 C   0  0  0  0  0  0  0  0  0  0  0  0
  -11.6987   15.7967   72.1371 C   0  0  0  0  0  0  0  0  0  0  0  0
  -10.5792   17.0579   69.9898 H   0  0  0  0  0  0  0  0  0  0  0  0
  -10.0289   15.7483   67.3919 H   0  0  0  0  0  0  0  0  0  0  0  0
  -11.4213   16.8382   67.2792 H   0  0  0  0  0  0  0  0  0  0  0  0
   -8.0981   16.5616   66.8746 H   0  0  0  0  0  0  0  0  0  0  0  0
   -6.4769   18.4674   66.5579 H   0  0  0  0  0  0  0  0  0  0  0  0
   -9.3136   21.1707   68.2003 H   0  0  0  0  0  0  0  0  0  0  0  0
  -10.8894   19.2898   68.5052 H   0  0  0  0  0  0  0  0  0  0  0  0
  -13.4815   13.5594   70.3409 H   0  0  0  0  0  0  0  0  0  0  0  0
  -12.2175   12.9372   71.4059 H   0  0  0  0  0  0  0  0  0  0  0  0
  -14.5904   14.7991   72.0167 H   0  0  0  0  0  0  0  0  0  0  0  0
  -14.3563   13.1258   72.5924 H   0  0  0  0  0  0  0  0  0  0  0  0
  -12.4895   16.4377   74.0394 H   0  0  0  0  0  0  0  0  0  0  0  0
  -13.6937   16.4505   72.6754 H   0  0  0  0  0  0  0  0  0  0  0  0
  -11.3469   16.8140   71.8798 H   0  0  0  0  0  0  0  0  0  0  0  0
  -10.8454   15.2962   72.6596 H   0  0  0  0  0  0  0  0  0  0  0  0
  1  2  2  0  0  0  0
  2  3  1  0  0  0  0
  3  4  1  0  0  0  0
  4  5  1  0  0  0  0
  5  6  2  0  0  0  0
  6  7  1  0  0  0  0
  7  8  2  0  0  0  0
  8  9  1  0  0  0  0
  9 10  3  0  0  0  0
  8 11  1  0  0  0  0
 11 12  2  0  0  0  0
  2 13  1  0  0  0  0
 13 14  1  0  0  0  0
 14 15  1  0  0  0  0
 15 16  1  0  0  0  0
 16 17  1  0  0  0  0
 17 18  1  0  0  0  0
  5 12  1  0  0  0  0
 18 13  1  0  0  0  0
  3 19  1  0  0  0  0
  4 20  1  0  0  0  0
  4 21  1  0  0  0  0
  6 22  1  0  0  0  0
  7 23  1  0  0  0  0
 11 24  1  0  0  0  0
 12 25  1  0  0  0  0
 14 26  1  0  0  0  0
 14 27  1  0  0  0  0
 15 28  1  0  0  0  0
 15 29  1  0  0  0  0
 17 30  1  0  0  0  0
 17 31  1  0  0  0  0
 18 32  1  0  0  0  0
 18 33  1  0  0  0  0
M  END
> <Gold.Version>
2022.1.0

> <Gold.Id.Protein>
6LU7|6LU7_protein|mol2

> <Gold.PLP.Fitness>
47.0522

> <Gold.PLP.PLP>
-44.0756

> <Gold.PLP.part.hbond>
-1.3203

> <Gold.PLP.part.metal>
0.0000

> <Gold.PLP.part.buried>
-6.4288

> <Gold.PLP.part.nonpolar>
-37.8509

> <Gold.PLP.part.repulsive>
0.4712

> <Gold.PLP.ligand.clash>
0.0000

> <Gold.PLP.ligand.torsion>
0.0119

> <Gold.PLP.Chemscore.Hbond>
1.0000

> <Gold.PLP.Chemscore.CHOScore>
0.0000

> <Gold.PLP.Chemscore.Metal>
0.0000

> <Gold.Chemscore.Hbonds>
donor molecule, donor type, donor heavy atom, donor atom, acceptor molecule, acceptor atom, score
      P1  H   180  3804       L1    10  1.00

> <Gold.PLP.Chemscore.Internal.Correction>
0.0004

> <Gold.Protein.RotatedTorsions>
[ 3973 1471 1470 1467 ] final   26.98 input   60.00 | X-H torsion
[ 3372  414  413  411 ] final  110.35 input   60.00 | X-H torsion
[ 4268 1114 1113 1110 ] final  -37.41 input   59.99 | X-H torsion
[ 4409  924  923  921 ] final  132.25 input   59.99 | X-H torsion
[ 4183 1244 1243 1241 ] final   10.97 input   59.99 | X-H torsion
[ 3800  178  177  174 ] final -143.96 input   60.00 | X-H torsion
[ 3793  171  170  167 ] final   89.97 input   60.00 | X-H torsion
[ 3576  185  184  181 ] final   19.66 input   60.00 | X-H torsion
[ 3523  346  345  342 ] final  -35.09 input   60.01 | X-H torsion
[ 3515  339  338  335 ] final    2.21 input   60.00 | X-H torsion
[ 3663  154  153  150 ] final  171.97 input   60.00 | X-H torsion
[ 4280 1130 1129 1126 ] final -104.12 input   60.00 | X-H torsion

> <Gold.Protein.ActiveResidues>
 VAL20   THR21   CYS22   GLY23   THR24   THR25   THR26   LEU27   ASN28   PRO39  
 ARG40   HIS41   VAL42   CYS44   THR45   SER46   ASP48   MET49   LEU50   PRO52  
 TYR54   TYR118  ASN119  ILE136  GLY138  SER139  PHE140  LEU141  ASN142  GLY143 
 SER144  CYS145  GLY146  SER147  TYR161  HIS163  HIS164  MET165  GLU166  LEU167 
 PRO168  THR169  GLY170  VAL171  HIS172  ALA173  PHE181  PHE185  VAL186  ASP187 
 ARG188  GLN189  THR190  ALA191  GLN192  ALA193 

> <Gold.Protein.RotatedAtoms>
  -14.1389   17.3336   76.3479 H   0  0  0  0  0  0  0  0  0  0  0  0  # atno 3372 bound_to 414 
   -3.6331   20.8486   74.3426 H   0  0  0  0  0  0  0  0  0  0  0  0  # atno 3515 bound_to 339 
   -3.6271   17.4273   72.7252 H   0  0  0  0  0  0  0  0  0  0  0  0  # atno 3523 bound_to 346 
   -8.7917   26.0406   63.9952 H   0  0  0  0  0  0  0  0  0  0  0  0  # atno 3576 bound_to 185 
   -6.9302   29.6839   65.0716 H   0  0  0  0  0  0  0  0  0  0  0  0  # atno 3663 bound_to 154 
   -2.9473   23.4688   71.7213 H   0  0  0  0  0  0  0  0  0  0  0  0  # atno 3793 bound_to 171 
   -7.5581   22.5234   72.0631 H   0  0  0  0  0  0  0  0  0  0  0  0  # atno 3800 bound_to 178 
  -15.1942    7.7649   76.8677 H   0  0  0  0  0  0  0  0  0  0  0  0  # atno 3973 bound_to 1471
  -21.0434   12.6305   64.2701 H   0  0  0  0  0  0  0  0  0  0  0  0  # atno 4183 bound_to 1244
  -12.6780   16.1496   62.0463 H   0  0  0  0  0  0  0  0  0  0  0  0  # atno 4268 bound_to 1114
  -16.3840   19.4731   57.9621 H   0  0  0  0  0  0  0  0  0  0  0  0  # atno 4280 bound_to 1130
  -10.4134   14.9047   57.3789 H   0  0  0  0  0  0  0  0  0  0  0  0  # atno 4409 bound_to 924 
  -15.1190    9.1196   77.7661 LP  0  0  0  0  0  0  0  0  0  0  0  0  # atno 4696 bound_to 1471
  -15.7222    7.7440   78.4068 LP  0  0  0  0  0  0  0  0  0  0  0  0  # atno 4697 bound_to 1471
  -14.4121   18.3480   75.1051 LP  0  0  0  0  0  0  0  0  0  0  0  0  # atno 4731 bound_to 414 
  -15.5490   17.2592   75.5392 LP  0  0  0  0  0  0  0  0  0  0  0  0  # atno 4732 bound_to 414 
  -13.0444   15.1045   60.8541 LP  0  0  0  0  0  0  0  0  0  0  0  0  # atno 4733 bound_to 1114
  -14.1966   16.0873   61.4651 LP  0  0  0  0  0  0  0  0  0  0  0  0  # atno 4734 bound_to 1114
  -11.5559   15.2255   56.2655 LP  0  0  0  0  0  0  0  0  0  0  0  0  # atno 4763 bound_to 924 
  -11.9016   15.3584   57.8560 LP  0  0  0  0  0  0  0  0  0  0  0  0  # atno 4764 bound_to 924 
  -20.0511   13.9141   64.1442 LP  0  0  0  0  0  0  0  0  0  0  0  0  # atno 4771 bound_to 1244
  -20.2680   12.9179   62.8686 LP  0  0  0  0  0  0  0  0  0  0  0  0  # atno 4772 bound_to 1244
   -6.9099   23.9849   72.3663 LP  0  0  0  0  0  0  0  0  0  0  0  0  # atno 4775 bound_to 178 
   -6.1428   22.9380   71.3753 LP  0  0  0  0  0  0  0  0  0  0  0  0  # atno 4776 bound_to 178 
   -3.2534   24.8773   72.4763 LP  0  0  0  0  0  0  0  0  0  0  0  0  # atno 4779 bound_to 171 
   -1.7587   24.2227   72.5377 LP  0  0  0  0  0  0  0  0  0  0  0  0  # atno 4780 bound_to 171 
   -7.7526   25.1113   63.1559 LP  0  0  0  0  0  0  0  0  0  0  0  0  # atno 4783 bound_to 185 
   -7.4012   26.6800   63.4426 LP  0  0  0  0  0  0  0  0  0  0  0  0  # atno 4784 bound_to 185 
   -2.0675   16.9653   72.6793 LP  0  0  0  0  0  0  0  0  0  0  0  0  # atno 4785 bound_to 346 
   -2.4629   18.4656   73.1884 LP  0  0  0  0  0  0  0  0  0  0  0  0  # atno 4786 bound_to 346 
   -2.7438   20.9660   75.7003 LP  0  0  0  0  0  0  0  0  0  0  0  0  # atno 4787 bound_to 339 
   -3.0880   22.3029   74.8280 LP  0  0  0  0  0  0  0  0  0  0  0  0  # atno 4788 bound_to 339 
   -8.5305   29.3935   65.1255 LP  0  0  0  0  0  0  0  0  0  0  0  0  # atno 4797 bound_to 154 
   -7.4704   28.2171   65.5241 LP  0  0  0  0  0  0  0  0  0  0  0  0  # atno 4798 bound_to 154 

$$$$
