unknown|prepared_Mpro-x0387|sdf|1|dock2
  -GOLD-   5 72214353D 1   1.00000     0.00000

 28 29  0  0  0  0  0  0  0  0  1 V2000
   -9.0743   17.9946   66.6478 O   0  0  0  0  0  0  0  0  0  0  0  0
   -9.1686   17.2297   67.8127 C   0  0  0  0  0  0  0  0  0  0  0  0
  -10.1285   17.8145   68.8132 C   0  0  0  0  0  0  0  0  0  0  0  0
  -11.0109   16.7986   69.4698 C   0  0  0  0  0  0  0  0  0  0  0  0
  -10.3887   15.5580   69.7759 N   0  0  0  0  0  0  0  0  0  0  0  0
  -11.3978   14.5589   70.0653 C   0  0  0  0  0  0  0  0  0  0  0  0
  -12.2312   14.9773   71.2684 C   0  0  0  0  0  0  0  0  0  0  0  0
  -11.7159   15.4425   72.4089 C   0  0  0  0  0  0  0  0  0  0  0  0
  -12.5788   15.7835   73.4146 C   0  0  0  0  0  0  0  0  0  0  0  0
  -14.1007   15.4396   72.7275 S   0  0  0  0  0  0  0  0  0  0  0  0
  -13.6004   14.8791   71.1995 C   0  0  0  0  0  0  0  0  0  0  0  0
   -9.5215   15.0383   68.7715 C   0  0  0  0  0  0  0  0  0  0  0  0
   -9.6805   15.8257   67.4847 C   0  0  0  0  0  0  0  0  0  0  0  0
   -9.9470   18.4390   66.4966 H   0  0  0  0  0  0  0  0  0  0  0  0
   -8.1799   17.1308   68.2852 H   0  0  0  0  0  0  0  0  0  0  0  0
   -9.6004   18.4388   69.5819 H   0  0  0  0  0  0  0  0  0  0  0  0
  -10.7780   18.5203   68.2517 H   0  0  0  0  0  0  0  0  0  0  0  0
  -11.8517   16.5900   68.7566 H   0  0  0  0  0  0  0  0  0  0  0  0
  -11.3897   17.2448   70.4135 H   0  0  0  0  0  0  0  0  0  0  0  0
  -10.8833   13.5951   70.2938 H   0  0  0  0  0  0  0  0  0  0  0  0
  -12.0559   14.3686   69.2016 H   0  0  0  0  0  0  0  0  0  0  0  0
  -10.6183   15.5587   72.5615 H   0  0  0  0  0  0  0  0  0  0  0  0
  -12.3216   16.1809   74.4144 H   0  0  0  0  0  0  0  0  0  0  0  0
  -14.2451   14.5329   70.3863 H   0  0  0  0  0  0  0  0  0  0  0  0
   -9.7224   13.9657   68.5232 H   0  0  0  0  0  0  0  0  0  0  0  0
   -8.4392   15.1370   69.0547 H   0  0  0  0  0  0  0  0  0  0  0  0
  -10.7337   15.9359   67.1786 H   0  0  0  0  0  0  0  0  0  0  0  0
   -9.0537   15.4000   66.6728 H   0  0  0  0  0  0  0  0  0  0  0  0
  1  2  1  0  0  0  0
  2  3  1  0  0  0  0
  3  4  1  0  0  0  0
  4  5  1  0  0  0  0
  5  6  1  0  0  0  0
  6  7  1  0  0  0  0
  7  8  1  0  0  0  0
  8  9  2  0  0  0  0
  9 10  1  0  0  0  0
 10 11  1  0  0  0  0
  5 12  1  0  0  0  0
 12 13  1  0  0  0  0
 13  2  1  0  0  0  0
  7 11  2  0  0  0  0
  1 14  1  0  0  0  0
  2 15  1  0  0  0  0
  3 16  1  0  0  0  0
  3 17  1  0  0  0  0
  4 18  1  0  0  0  0
  4 19  1  0  0  0  0
  6 20  1  0  0  0  0
  6 21  1  0  0  0  0
  8 22  1  0  0  0  0
  9 23  1  0  0  0  0
 11 24  1  0  0  0  0
 12 25  1  0  0  0  0
 12 26  1  0  0  0  0
 13 27  1  0  0  0  0
 13 28  1  0  0  0  0
M  END
> <Gold.Version>
2022.1.0

> <Gold.Id.Protein>
6LU7|6LU7_protein|mol2

> <Gold.PLP.Fitness>
35.8869

> <Gold.PLP.PLP>
-33.2168

> <Gold.PLP.part.hbond>
0.0000

> <Gold.PLP.part.metal>
0.0000

> <Gold.PLP.part.buried>
-3.8021

> <Gold.PLP.part.nonpolar>
-30.0789

> <Gold.PLP.part.repulsive>
0.0934

> <Gold.PLP.ligand.clash>
0.0000

> <Gold.PLP.ligand.torsion>
0.1730

> <Gold.PLP.Chemscore.Hbond>
0.0000

> <Gold.PLP.Chemscore.CHOScore>
1.0000

> <Gold.PLP.Chemscore.Metal>
0.0000

> <Gold.Chemscore.Hbonds>
donor molecule, donor type, donor heavy atom, donor atom, acceptor molecule, acceptor atom, score
      L1  C    11    24       P1  1266  1.00

> <Gold.PLP.Chemscore.Internal.Correction>
0.0161

> <Gold.Protein.RotatedTorsions>
[ 3973 1471 1470 1467 ] final -110.93 input   60.00 | X-H torsion
[ 3372  414  413  411 ] final  -23.35 input   60.00 | X-H torsion
[ 4268 1114 1113 1110 ] final  -61.30 input   59.99 | X-H torsion
[ 4409  924  923  921 ] final  114.96 input   59.99 | X-H torsion
[ 4183 1244 1243 1241 ] final   80.28 input   59.99 | X-H torsion
[ 3800  178  177  174 ] final   71.39 input   60.00 | X-H torsion
[ 3793  171  170  167 ] final  -29.78 input   60.00 | X-H torsion
[ 3576  185  184  181 ] final   42.95 input   60.00 | X-H torsion
[ 3523  346  345  342 ] final -131.27 input   60.01 | X-H torsion
[ 3515  339  338  335 ] final   55.66 input   60.00 | X-H torsion
[ 3663  154  153  150 ] final  -14.22 input   60.00 | X-H torsion
[ 4280 1130 1129 1126 ] final -151.49 input   60.00 | X-H torsion

> <Gold.Protein.ActiveResidues>
 VAL20   THR21   CYS22   GLY23   THR24   THR25   THR26   LEU27   ASN28   PRO39  
 ARG40   HIS41   VAL42   CYS44   THR45   SER46   ASP48   MET49   LEU50   PRO52  
 TYR54   TYR118  ASN119  ILE136  GLY138  SER139  PHE140  LEU141  ASN142  GLY143 
 SER144  CYS145  GLY146  SER147  TYR161  HIS163  HIS164  MET165  GLU166  LEU167 
 PRO168  THR169  GLY170  VAL171  HIS172  ALA173  PHE181  PHE185  VAL186  ASP187 
 ARG188  GLN189  THR190  ALA191  GLN192  ALA193 

> <Gold.Protein.RotatedAtoms>
  -14.6152   18.3152   75.0161 H   0  0  0  0  0  0  0  0  0  0  0  0  # atno 3372 bound_to 414 
   -3.5992   21.6759   74.1891 H   0  0  0  0  0  0  0  0  0  0  0  0  # atno 3515 bound_to 339 
   -2.3985   16.7838   72.5904 H   0  0  0  0  0  0  0  0  0  0  0  0  # atno 3523 bound_to 346 
   -8.6462   26.3883   64.0225 H   0  0  0  0  0  0  0  0  0  0  0  0  # atno 3576 bound_to 185 
   -8.2842   28.4467   65.4349 H   0  0  0  0  0  0  0  0  0  0  0  0  # atno 3663 bound_to 154 
   -3.2516   24.8717   72.4708 H   0  0  0  0  0  0  0  0  0  0  0  0  # atno 3793 bound_to 171 
   -6.5680   24.0045   72.1574 H   0  0  0  0  0  0  0  0  0  0  0  0  # atno 3800 bound_to 178 
  -15.2222    9.0655   78.0343 H   0  0  0  0  0  0  0  0  0  0  0  0  # atno 3973 bound_to 1471
  -20.7804   12.4346   63.2573 H   0  0  0  0  0  0  0  0  0  0  0  0  # atno 4183 bound_to 1244
  -12.4641   15.8900   61.8539 H   0  0  0  0  0  0  0  0  0  0  0  0  # atno 4268 bound_to 1114
  -16.1023   18.8111   58.1815 H   0  0  0  0  0  0  0  0  0  0  0  0  # atno 4280 bound_to 1130
  -10.3941   14.8938   57.0984 H   0  0  0  0  0  0  0  0  0  0  0  0  # atno 4409 bound_to 924 
  -15.7175    7.5256   78.2109 LP  0  0  0  0  0  0  0  0  0  0  0  0  # atno 4696 bound_to 1471
  -15.0954    8.0281   76.7871 LP  0  0  0  0  0  0  0  0  0  0  0  0  # atno 4697 bound_to 1471
  -15.4868   17.1310   75.7132 LP  0  0  0  0  0  0  0  0  0  0  0  0  # atno 4731 bound_to 414 
  -13.9946   17.4877   76.2723 LP  0  0  0  0  0  0  0  0  0  0  0  0  # atno 4732 bound_to 414 
  -13.4227   15.1477   60.7685 LP  0  0  0  0  0  0  0  0  0  0  0  0  # atno 4733 bound_to 1114
  -14.0336   16.3056   61.7445 LP  0  0  0  0  0  0  0  0  0  0  0  0  # atno 4734 bound_to 1114
  -11.8001   15.3012   56.3879 LP  0  0  0  0  0  0  0  0  0  0  0  0  # atno 4763 bound_to 924 
  -11.6769   15.2938   58.0162 LP  0  0  0  0  0  0  0  0  0  0  0  0  # atno 4764 bound_to 924 
  -20.7322   13.2638   64.6566 LP  0  0  0  0  0  0  0  0  0  0  0  0  # atno 4771 bound_to 1244
  -19.8517   13.7655   63.3762 LP  0  0  0  0  0  0  0  0  0  0  0  0  # atno 4772 bound_to 1244
   -6.3662   22.6038   71.3540 LP  0  0  0  0  0  0  0  0  0  0  0  0  # atno 4775 bound_to 178 
   -7.6836   22.8275   72.2926 LP  0  0  0  0  0  0  0  0  0  0  0  0  # atno 4776 bound_to 178 
   -1.7594   24.2262   72.5396 LP  0  0  0  0  0  0  0  0  0  0  0  0  # atno 4779 bound_to 171 
   -2.9462   23.4609   71.7196 LP  0  0  0  0  0  0  0  0  0  0  0  0  # atno 4780 bound_to 171 
   -8.0905   25.0335   63.3130 LP  0  0  0  0  0  0  0  0  0  0  0  0  # atno 4783 bound_to 185 
   -7.2099   26.4076   63.2579 LP  0  0  0  0  0  0  0  0  0  0  0  0  # atno 4784 bound_to 185 
   -2.1198   18.2860   73.1507 LP  0  0  0  0  0  0  0  0  0  0  0  0  # atno 4785 bound_to 346 
   -3.6478   17.7930   72.8527 LP  0  0  0  0  0  0  0  0  0  0  0  0  # atno 4786 bound_to 346 
   -3.1638   20.4535   75.1711 LP  0  0  0  0  0  0  0  0  0  0  0  0  # atno 4787 bound_to 339 
   -2.7021   21.9823   75.5117 LP  0  0  0  0  0  0  0  0  0  0  0  0  # atno 4788 bound_to 339 
   -6.7248   28.8984   65.3240 LP  0  0  0  0  0  0  0  0  0  0  0  0  # atno 4797 bound_to 154 
   -7.9126   29.9581   64.9597 LP  0  0  0  0  0  0  0  0  0  0  0  0  # atno 4798 bound_to 154 

$$$$
