unknown|prepared_Mpro-x0991|sdf|1|dock4
  -GOLD-   5 72214353D 1   1.00000     0.00000

 13 12  0  0  0  0  0  0  0  0  1 V2000
  -12.9877   15.0222   72.5401 C   0  0  0  0  0  0  0  0  0  0  0  0
  -12.9209   14.1873   71.2728 C   0  0  0  0  0  0  0  0  0  0  0  0
  -12.0265   14.7715   70.2595 C   0  0  0  0  0  0  0  0  0  0  0  0
  -10.7468   14.6625   70.3073 N   0  0  0  0  0  0  0  0  0  0  0  0
  -12.5831   15.4884   69.1771 N   0  0  0  0  0  0  0  0  0  0  0  0
  -14.0322   15.2592   72.7869 H   0  0  0  0  0  0  0  0  0  0  0  0
  -12.4455   15.9755   72.4371 H   0  0  0  0  0  0  0  0  0  0  0  0
  -12.4910   14.4718   73.3812 H   0  0  0  0  0  0  0  0  0  0  0  0
  -12.6186   13.1284   71.5073 H   0  0  0  0  0  0  0  0  0  0  0  0
  -13.9327   14.0971   70.8138 H   0  0  0  0  0  0  0  0  0  0  0  0
  -10.2780   14.1478   71.0775 H   0  0  0  0  0  0  0  0  0  0  0  0
  -13.6254   15.6069   69.0907 H   0  0  0  0  0  0  0  0  0  0  0  0
  -11.9177   15.9007   68.4586 H   0  0  0  0  0  0  0  0  0  0  0  0
  1  2  1  0  0  0  0
  2  3  1  0  0  0  0
  3  4  2  0  0  0  0
  3  5  1  0  0  0  0
  1  6  1  0  0  0  0
  1  7  1  0  0  0  0
  1  8  1  0  0  0  0
  2  9  1  0  0  0  0
  2 10  1  0  0  0  0
  4 11  1  0  0  0  0
  5 12  1  0  0  0  0
  5 13  1  0  0  0  0
M  END
> <Gold.Version>
2022.1.0

> <Gold.Id.Protein>
6LU7|6LU7_protein|mol2

> <Gold.PLP.Fitness>
21.0182

> <Gold.PLP.PLP>
-15.5866

> <Gold.PLP.part.hbond>
-2.0000

> <Gold.PLP.part.metal>
0.0000

> <Gold.PLP.part.buried>
-2.7473

> <Gold.PLP.part.nonpolar>
-11.1771

> <Gold.PLP.part.repulsive>
0.0580

> <Gold.PLP.ligand.clash>
0.0000

> <Gold.PLP.ligand.torsion>
0.2602

> <Gold.PLP.Chemscore.Hbond>
1.9840

> <Gold.PLP.Chemscore.CHOScore>
0.0000

> <Gold.PLP.Chemscore.Metal>
0.0000

> <Gold.Chemscore.Hbonds>
donor molecule, donor type, donor heavy atom, donor atom, acceptor molecule, acceptor atom, score
      L1  H     4    11       P1  1464  0.99
      L1  H     5    12       P1  1266  0.99

> <Gold.PLP.Chemscore.Internal.Correction>
0.0000

> <Gold.Protein.RotatedTorsions>
[ 3973 1471 1470 1467 ] final -123.36 input   60.00 | X-H torsion
[ 3372  414  413  411 ] final  104.29 input   60.00 | X-H torsion
[ 4268 1114 1113 1110 ] final   82.60 input   59.99 | X-H torsion
[ 4409  924  923  921 ] final  134.93 input   59.99 | X-H torsion
[ 4183 1244 1243 1241 ] final  169.66 input   59.99 | X-H torsion
[ 3800  178  177  174 ] final  -57.05 input   60.00 | X-H torsion
[ 3793  171  170  167 ] final   54.42 input   60.00 | X-H torsion
[ 3576  185  184  181 ] final  -48.13 input   60.00 | X-H torsion
[ 3523  346  345  342 ] final  -36.24 input   60.01 | X-H torsion
[ 3515  339  338  335 ] final -169.16 input   60.00 | X-H torsion
[ 3663  154  153  150 ] final    0.29 input   60.00 | X-H torsion
[ 4280 1130 1129 1126 ] final  102.92 input   60.00 | X-H torsion

> <Gold.Protein.ActiveResidues>
 VAL20   THR21   CYS22   GLY23   THR24   THR25   THR26   LEU27   ASN28   PRO39  
 ARG40   HIS41   VAL42   CYS44   THR45   SER46   ASP48   MET49   LEU50   PRO52  
 TYR54   TYR118  ASN119  ILE136  GLY138  SER139  PHE140  LEU141  ASN142  GLY143 
 SER144  CYS145  GLY146  SER147  TYR161  HIS163  HIS164  MET165  GLU166  LEU167 
 PRO168  THR169  GLY170  VAL171  HIS172  ALA173  PHE181  PHE185  VAL186  ASP187 
 ARG188  GLN189  THR190  ALA191  GLN192  ALA193 

> <Gold.Protein.RotatedAtoms>
  -14.0732   17.4013   76.3178 H   0  0  0  0  0  0  0  0  0  0  0  0  # atno 3372 bound_to 414 
   -2.6574   21.7734   75.6382 H   0  0  0  0  0  0  0  0  0  0  0  0  # atno 3515 bound_to 339 
   -3.6224   17.4101   72.7194 H   0  0  0  0  0  0  0  0  0  0  0  0  # atno 3523 bound_to 346 
   -8.4753   25.1478   63.5560 H   0  0  0  0  0  0  0  0  0  0  0  0  # atno 3576 bound_to 185 
   -8.4343   28.6198   65.3764 H   0  0  0  0  0  0  0  0  0  0  0  0  # atno 3663 bound_to 154 
   -3.3907   23.8211   71.7980 H   0  0  0  0  0  0  0  0  0  0  0  0  # atno 3793 bound_to 171 
   -6.4704   22.5149   71.3736 H   0  0  0  0  0  0  0  0  0  0  0  0  # atno 3800 bound_to 178 
  -15.3019    8.9834   78.2017 H   0  0  0  0  0  0  0  0  0  0  0  0  # atno 3973 bound_to 1471
  -19.9554   13.4337   63.0222 H   0  0  0  0  0  0  0  0  0  0  0  0  # atno 4183 bound_to 1244
  -14.1898   16.0866   61.4633 H   0  0  0  0  0  0  0  0  0  0  0  0  # atno 4268 bound_to 1114
  -15.5203   19.1069   59.5222 H   0  0  0  0  0  0  0  0  0  0  0  0  # atno 4280 bound_to 1130
  -10.4237   14.9085   57.4213 H   0  0  0  0  0  0  0  0  0  0  0  0  # atno 4409 bound_to 924 
  -15.6928    7.4118   78.0432 LP  0  0  0  0  0  0  0  0  0  0  0  0  # atno 4696 bound_to 1471
  -15.0399    8.2245   76.7863 LP  0  0  0  0  0  0  0  0  0  0  0  0  # atno 4697 bound_to 1471
  -14.5000   18.3398   75.0588 LP  0  0  0  0  0  0  0  0  0  0  0  0  # atno 4731 bound_to 414 
  -15.5273   17.1993   75.6159 LP  0  0  0  0  0  0  0  0  0  0  0  0  # atno 4732 bound_to 414 
  -12.6742   16.1507   62.0522 LP  0  0  0  0  0  0  0  0  0  0  0  0  # atno 4733 bound_to 1114
  -13.0442   15.1045   60.8541 LP  0  0  0  0  0  0  0  0  0  0  0  0  # atno 4734 bound_to 1114
  -11.5153   15.2131   56.2537 LP  0  0  0  0  0  0  0  0  0  0  0  0  # atno 4763 bound_to 924 
  -11.9319   15.3670   57.8251 LP  0  0  0  0  0  0  0  0  0  0  0  0  # atno 4764 bound_to 924 
  -20.9943   12.3816   63.7017 LP  0  0  0  0  0  0  0  0  0  0  0  0  # atno 4771 bound_to 1244
  -20.4204   13.6415   64.5677 LP  0  0  0  0  0  0  0  0  0  0  0  0  # atno 4772 bound_to 1244
   -7.6916   22.9501   72.3571 LP  0  0  0  0  0  0  0  0  0  0  0  0  # atno 4775 bound_to 178 
   -6.4565   23.9814   72.0788 LP  0  0  0  0  0  0  0  0  0  0  0  0  # atno 4776 bound_to 178 
   -2.7418   25.0039   72.7078 LP  0  0  0  0  0  0  0  0  0  0  0  0  # atno 4779 bound_to 171 
   -1.8237   23.7413   72.2290 LP  0  0  0  0  0  0  0  0  0  0  0  0  # atno 4780 bound_to 171 
   -7.1497   25.9706   63.0936 LP  0  0  0  0  0  0  0  0  0  0  0  0  # atno 4783 bound_to 185 
   -8.3228   26.7199   63.9473 LP  0  0  0  0  0  0  0  0  0  0  0  0  # atno 4784 bound_to 185 
   -2.0541   16.9774   72.6847 LP  0  0  0  0  0  0  0  0  0  0  0  0  # atno 4785 bound_to 346 
   -2.4810   18.4708   73.1888 LP  0  0  0  0  0  0  0  0  0  0  0  0  # atno 4786 bound_to 346 
   -3.5150   21.8982   74.2609 LP  0  0  0  0  0  0  0  0  0  0  0  0  # atno 4787 bound_to 339 
   -3.2994   20.4395   74.9625 LP  0  0  0  0  0  0  0  0  0  0  0  0  # atno 4788 bound_to 339 
   -6.8084   28.6854   65.3899 LP  0  0  0  0  0  0  0  0  0  0  0  0  # atno 4797 bound_to 154 
   -7.6777   29.9968   64.9527 LP  0  0  0  0  0  0  0  0  0  0  0  0  # atno 4798 bound_to 154 

$$$$
