unknown|prepared_Mpro-x0874|sdf|1|dock4
  -GOLD-   5 72214353D 1   1.00000     0.00000

 26 27  0  0  0  0  0  0  0  0  1 V2000
  -10.0831   14.8051   68.4746 O   0  0  0  0  0  0  0  0  0  0  0  0
  -11.1953   15.2803   68.1797 C   0  0  0  0  0  0  0  0  0  0  0  0
  -11.3615   16.4048   67.2638 C   0  0  2  0  0  0  0  0  0  0  0  0
  -10.7714   16.2602   65.9030 C   0  0  2  0  0  0  0  0  0  0  0  0
  -11.1394   14.9665   65.2177 C   0  0  0  0  0  0  0  0  0  0  0  0
  -10.1954   14.0058   65.0115 C   0  0  0  0  0  0  0  0  0  0  0  0
  -11.0666   12.7567   64.2498 S   0  0  0  0  0  0  0  0  0  0  0  0
  -12.6073   13.4792   64.2097 C   0  0  0  0  0  0  0  0  0  0  0  0
  -12.3987   14.6988   64.8026 C   0  0  0  0  0  0  0  0  0  0  0  0
   -9.3125   16.4381   66.0979 C   0  0  0  0  0  0  0  0  0  0  0  0
   -9.2954   17.6746   67.0077 C   0  0  0  0  0  0  0  0  0  0  0  0
  -10.5482   17.5679   67.8350 C   0  0  0  0  0  0  0  0  0  0  0  0
  -12.3603   14.7083   68.7558 N   0  0  0  0  0  0  0  0  0  0  0  0
  -12.4330   16.7164   67.1565 H   0  0  0  0  0  0  0  0  0  0  0  0
  -11.1985   17.0955   65.2958 H   0  0  0  0  0  0  0  0  0  0  0  0
   -9.1228   14.0428   65.2803 H   0  0  0  0  0  0  0  0  0  0  0  0
  -13.5529   13.0732   63.8062 H   0  0  0  0  0  0  0  0  0  0  0  0
  -13.2811   15.3784   64.9104 H   0  0  0  0  0  0  0  0  0  0  0  0
   -8.8125   15.5928   66.5656 H   0  0  0  0  0  0  0  0  0  0  0  0
   -8.7824   16.6522   65.1450 H   0  0  0  0  0  0  0  0  0  0  0  0
   -8.3767   17.6926   67.6295 H   0  0  0  0  0  0  0  0  0  0  0  0
   -9.3759   18.5702   66.3548 H   0  0  0  0  0  0  0  0  0  0  0  0
  -11.1852   18.4689   67.7547 H   0  0  0  0  0  0  0  0  0  0  0  0
  -10.3013   17.3828   68.9221 H   0  0  0  0  0  0  0  0  0  0  0  0
  -12.3320   13.8956   69.4257 H   0  0  0  0  0  0  0  0  0  0  0  0
  -13.3287   15.0619   68.5485 H   0  0  0  0  0  0  0  0  0  0  0  0
  1  2  2  0  0  0  0
  2  3  1  0  0  0  0
  3  4  1  0  0  0  0
  4  5  1  0  0  0  0
  5  6  2  0  0  0  0
  6  7  1  0  0  0  0
  7  8  1  0  0  0  0
  8  9  2  0  0  0  0
  4 10  1  0  0  0  0
 10 11  1  0  0  0  0
 11 12  1  0  0  0  0
  2 13  1  0  0  0  0
 12  3  1  0  0  0  0
  9  5  1  0  0  0  0
  3 14  1  0  0  0  0
  4 15  1  0  0  0  0
  6 16  1  0  0  0  0
  8 17  1  0  0  0  0
  9 18  1  0  0  0  0
 10 19  1  0  0  0  0
 10 20  1  0  0  0  0
 11 21  1  0  0  0  0
 11 22  1  0  0  0  0
 12 23  1  0  0  0  0
 12 24  1  0  0  0  0
 13 25  1  0  0  0  0
 13 26  1  0  0  0  0
M  END
> <Gold.Version>
2022.1.0

> <Gold.Id.Protein>
6LU7|6LU7_protein|mol2

> <Gold.PLP.Fitness>
36.1752

> <Gold.PLP.PLP>
-27.4772

> <Gold.PLP.part.hbond>
-1.0000

> <Gold.PLP.part.metal>
0.0000

> <Gold.PLP.part.buried>
-3.2842

> <Gold.PLP.part.nonpolar>
-23.1078

> <Gold.PLP.part.repulsive>
0.0903

> <Gold.PLP.ligand.clash>
0.0000

> <Gold.PLP.ligand.torsion>
0.1752

> <Gold.PLP.Chemscore.Hbond>
1.0000

> <Gold.PLP.Chemscore.CHOScore>
2.0000

> <Gold.PLP.Chemscore.Metal>
0.0000

> <Gold.Chemscore.Hbonds>
donor molecule, donor type, donor heavy atom, donor atom, acceptor molecule, acceptor atom, score
      L1  H    13    26       P1  1266  1.00
      L1  C     6    16       P1  1103  1.00
      L1  C     8    17       P1  1262  1.00

> <Gold.PLP.Chemscore.Internal.Correction>
0.0483

> <Gold.Protein.RotatedTorsions>
[ 3973 1471 1470 1467 ] final  -87.00 input   60.00 | X-H torsion
[ 3372  414  413  411 ] final   94.72 input   60.00 | X-H torsion
[ 4268 1114 1113 1110 ] final  101.79 input   59.99 | X-H torsion
[ 4409  924  923  921 ] final  166.71 input   59.99 | X-H torsion
[ 4183 1244 1243 1241 ] final   56.32 input   59.99 | X-H torsion
[ 3800  178  177  174 ] final -133.05 input   60.00 | X-H torsion
[ 3793  171  170  167 ] final   89.13 input   60.00 | X-H torsion
[ 3576  185  184  181 ] final  161.43 input   60.00 | X-H torsion
[ 3523  346  345  342 ] final  179.79 input   60.01 | X-H torsion
[ 3515  339  338  335 ] final -120.70 input   60.00 | X-H torsion
[ 3663  154  153  150 ] final -126.31 input   60.00 | X-H torsion
[ 4280 1130 1129 1126 ] final   99.57 input   60.00 | X-H torsion

> <Gold.Protein.ActiveResidues>
 VAL20   THR21   CYS22   GLY23   THR24   THR25   THR26   LEU27   ASN28   PRO39  
 ARG40   HIS41   VAL42   CYS44   THR45   SER46   ASP48   MET49   LEU50   PRO52  
 TYR54   TYR118  ASN119  ILE136  GLY138  SER139  PHE140  LEU141  ASN142  GLY143 
 SER144  CYS145  GLY146  SER147  TYR161  HIS163  HIS164  MET165  GLU166  LEU167 
 PRO168  THR169  GLY170  VAL171  HIS172  ALA173  PHE181  PHE185  VAL186  ASP187 
 ARG188  GLN189  THR190  ALA191  GLN192  ALA193 

> <Gold.Protein.RotatedAtoms>
  -13.9840   17.5134   76.2557 H   0  0  0  0  0  0  0  0  0  0  0  0  # atno 3372 bound_to 414 
   -2.7333   21.0121   75.7096 H   0  0  0  0  0  0  0  0  0  0  0  0  # atno 3515 bound_to 339 
   -1.8488   17.2833   72.8136 H   0  0  0  0  0  0  0  0  0  0  0  0  # atno 3523 bound_to 346 
   -7.2231   26.4242   63.2727 H   0  0  0  0  0  0  0  0  0  0  0  0  # atno 3576 bound_to 185 
   -6.7696   28.7827   65.3622 H   0  0  0  0  0  0  0  0  0  0  0  0  # atno 3663 bound_to 154 
   -2.9599   23.4744   71.7208 H   0  0  0  0  0  0  0  0  0  0  0  0  # atno 3793 bound_to 171 
   -7.4625   22.4211   71.9533 H   0  0  0  0  0  0  0  0  0  0  0  0  # atno 3800 bound_to 178 
  -15.0880    9.1087   77.6728 H   0  0  0  0  0  0  0  0  0  0  0  0  # atno 3973 bound_to 1471
  -20.9574   12.3798   63.5987 H   0  0  0  0  0  0  0  0  0  0  0  0  # atno 4183 bound_to 1244
  -14.2103   15.8727   61.2371 H   0  0  0  0  0  0  0  0  0  0  0  0  # atno 4268 bound_to 1114
  -15.5209   19.1558   59.5471 H   0  0  0  0  0  0  0  0  0  0  0  0  # atno 4280 bound_to 1130
  -10.6790   14.9933   57.8577 H   0  0  0  0  0  0  0  0  0  0  0  0  # atno 4409 bound_to 924 
  -15.7155    7.8287   78.4576 LP  0  0  0  0  0  0  0  0  0  0  0  0  # atno 4696 bound_to 1471
  -15.2326    7.6814   76.9046 LP  0  0  0  0  0  0  0  0  0  0  0  0  # atno 4697 bound_to 1471
  -14.6428   18.3110   74.9996 LP  0  0  0  0  0  0  0  0  0  0  0  0  # atno 4731 bound_to 414 
  -15.4743   17.1151   75.7377 LP  0  0  0  0  0  0  0  0  0  0  0  0  # atno 4732 bound_to 414 
  -12.9279   16.3166   62.1350 LP  0  0  0  0  0  0  0  0  0  0  0  0  # atno 4733 bound_to 1114
  -12.7698   15.1542   60.9990 LP  0  0  0  0  0  0  0  0  0  0  0  0  # atno 4734 bound_to 1114
  -11.0210   15.0648   56.2684 LP  0  0  0  0  0  0  0  0  0  0  0  0  # atno 4763 bound_to 924 
  -12.1690   15.4300   57.3708 LP  0  0  0  0  0  0  0  0  0  0  0  0  # atno 4764 bound_to 924 
  -20.4905   13.5677   64.6081 LP  0  0  0  0  0  0  0  0  0  0  0  0  # atno 4771 bound_to 1244
  -19.9150   13.5169   63.0808 LP  0  0  0  0  0  0  0  0  0  0  0  0  # atno 4772 bound_to 1244
   -7.0642   23.9239   72.4340 LP  0  0  0  0  0  0  0  0  0  0  0  0  # atno 4775 bound_to 178 
   -6.0847   23.1020   71.4182 LP  0  0  0  0  0  0  0  0  0  0  0  0  # atno 4776 bound_to 178 
   -3.2433   24.8837   72.4832 LP  0  0  0  0  0  0  0  0  0  0  0  0  # atno 4779 bound_to 171 
   -1.7562   24.2108   72.5312 LP  0  0  0  0  0  0  0  0  0  0  0  0  # atno 4780 bound_to 171 
   -8.6652   26.3710   64.0247 LP  0  0  0  0  0  0  0  0  0  0  0  0  # atno 4783 bound_to 185 
   -8.0685   25.0341   63.3014 LP  0  0  0  0  0  0  0  0  0  0  0  0  # atno 4784 bound_to 185 
   -2.8711   18.4987   73.1681 LP  0  0  0  0  0  0  0  0  0  0  0  0  # atno 4785 bound_to 346 
   -3.4501   17.0772   72.6106 LP  0  0  0  0  0  0  0  0  0  0  0  0  # atno 4786 bound_to 346 
   -3.1142   22.2982   74.7882 LP  0  0  0  0  0  0  0  0  0  0  0  0  # atno 4787 bound_to 339 
   -3.6238   20.8061   74.3633 LP  0  0  0  0  0  0  0  0  0  0  0  0  # atno 4788 bound_to 339 
   -7.7858   29.9862   64.9536 LP  0  0  0  0  0  0  0  0  0  0  0  0  # atno 4797 bound_to 154 
   -8.3769   28.5319   65.4033 LP  0  0  0  0  0  0  0  0  0  0  0  0  # atno 4798 bound_to 154 

$$$$
