unknown|prepared_Mpro-x2193|sdf|1|dock2
  -GOLD-   5 72214353D 1   1.00000     0.00000

 32 33  0  0  0  0  0  0  0  0  1 V2000
  -10.2399   14.7748   65.1094 C   0  0  0  0  0  0  0  0  0  0  0  0
   -9.7018   16.0501   66.2312 S   0  0  0  0  0  0  0  0  0  0  0  0
  -10.0819   17.4020   65.6973 O   0  0  0  0  0  0  0  0  0  0  0  0
   -8.1913   15.9865   66.4064 O   0  0  0  0  0  0  0  0  0  0  0  0
  -10.4449   15.7363   67.7894 C   0  0  0  0  0  0  0  0  0  0  0  0
  -10.0703   16.4400   68.9128 C   0  0  0  0  0  0  0  0  0  0  0  0
  -10.6474   16.2007   70.1396 C   0  0  0  0  0  0  0  0  0  0  0  0
  -11.6334   15.2413   70.3074 C   0  0  0  0  0  0  0  0  0  0  0  0
  -12.0157   14.5340   69.1965 C   0  0  0  0  0  0  0  0  0  0  0  0
  -11.4247   14.7815   67.9502 C   0  0  0  0  0  0  0  0  0  0  0  0
  -12.2476   14.9984   71.5518 N   0  0  0  0  0  0  0  0  0  0  0  0
  -11.5714   15.3165   72.7789 C   0  0  0  0  0  0  0  0  0  0  0  0
  -12.4762   16.2301   73.5950 C   0  0  0  0  0  0  0  0  0  0  0  0
  -13.7640   15.6377   73.7493 N   0  0  0  0  0  0  0  0  0  0  0  0
  -14.4131   15.3643   72.4784 C   0  0  0  0  0  0  0  0  0  0  0  0
  -13.5680   14.4061   71.6611 C   0  0  0  0  0  0  0  0  0  0  0  0
  -11.0472   15.1860   64.4460 H   0  0  0  0  0  0  0  0  0  0  0  0
  -10.6436   13.8937   65.6363 H   0  0  0  0  0  0  0  0  0  0  0  0
   -9.3740   14.4641   64.4858 H   0  0  0  0  0  0  0  0  0  0  0  0
   -9.2888   17.2037   68.7912 H   0  0  0  0  0  0  0  0  0  0  0  0
  -10.3182   16.7777   70.9991 H   0  0  0  0  0  0  0  0  0  0  0  0
  -12.7896   13.7860   69.2940 H   0  0  0  0  0  0  0  0  0  0  0  0
  -11.7475   14.2121   67.1116 H   0  0  0  0  0  0  0  0  0  0  0  0
  -11.5219   14.3642   73.3725 H   0  0  0  0  0  0  0  0  0  0  0  0
  -10.5771   15.7426   72.6753 H   0  0  0  0  0  0  0  0  0  0  0  0
  -12.4930   17.2151   73.0748 H   0  0  0  0  0  0  0  0  0  0  0  0
  -12.0111   16.3046   74.5994 H   0  0  0  0  0  0  0  0  0  0  0  0
  -14.4036   16.2200   74.3022 H   0  0  0  0  0  0  0  0  0  0  0  0
  -15.4086   14.9174   72.7244 H   0  0  0  0  0  0  0  0  0  0  0  0
  -14.5020   16.3024   71.8941 H   0  0  0  0  0  0  0  0  0  0  0  0
  -14.0172   14.2289   70.6894 H   0  0  0  0  0  0  0  0  0  0  0  0
  -13.4555   13.4320   72.2103 H   0  0  0  0  0  0  0  0  0  0  0  0
  1  2  1  0  0  0  0
  2  3  2  0  0  0  0
  2  4  2  0  0  0  0
  2  5  1  0  0  0  0
  5  6  2  0  0  0  0
  6  7  1  0  0  0  0
  7  8  2  0  0  0  0
  8  9  1  0  0  0  0
  9 10  2  0  0  0  0
  8 11  1  0  0  0  0
 11 12  1  0  0  0  0
 12 13  1  0  0  0  0
 13 14  1  0  0  0  0
 14 15  1  0  0  0  0
 15 16  1  0  0  0  0
 10  5  1  0  0  0  0
 16 11  1  0  0  0  0
  1 17  1  0  0  0  0
  1 18  1  0  0  0  0
  1 19  1  0  0  0  0
  6 20  1  0  0  0  0
  7 21  1  0  0  0  0
  9 22  1  0  0  0  0
 10 23  1  0  0  0  0
 12 24  1  0  0  0  0
 12 25  1  0  0  0  0
 13 26  1  0  0  0  0
 13 27  1  0  0  0  0
 14 28  1  0  0  0  0
 15 29  1  0  0  0  0
 15 30  1  0  0  0  0
 16 31  1  0  0  0  0
 16 32  1  0  0  0  0
M  END
> <Gold.Version>
2022.1.0

> <Gold.Id.Protein>
6LU7|6LU7_protein|mol2

> <Gold.PLP.Fitness>
47.5899

> <Gold.PLP.PLP>
-43.7410

> <Gold.PLP.part.hbond>
-2.5609

> <Gold.PLP.part.metal>
0.0000

> <Gold.PLP.part.buried>
-4.9638

> <Gold.PLP.part.nonpolar>
-37.3638

> <Gold.PLP.part.repulsive>
0.0908

> <Gold.PLP.ligand.clash>
0.0000

> <Gold.PLP.ligand.torsion>
1.3777

> <Gold.PLP.Chemscore.Hbond>
1.4608

> <Gold.PLP.Chemscore.CHOScore>
0.0000

> <Gold.PLP.Chemscore.Metal>
0.0000

> <Gold.Chemscore.Hbonds>
donor molecule, donor type, donor heavy atom, donor atom, acceptor molecule, acceptor atom, score
      L1  H    14    28       P1  1441  0.46
      P1  H  1105  4261       L1     3  1.00

> <Gold.PLP.Chemscore.Internal.Correction>
2.2218

> <Gold.Protein.RotatedTorsions>
[ 3973 1471 1470 1467 ] final  -36.87 input   60.00 | X-H torsion
[ 3372  414  413  411 ] final -118.27 input   60.00 | X-H torsion
[ 4268 1114 1113 1110 ] final  119.31 input   59.99 | X-H torsion
[ 4409  924  923  921 ] final  118.20 input   59.99 | X-H torsion
[ 4183 1244 1243 1241 ] final -101.92 input   59.99 | X-H torsion
[ 3800  178  177  174 ] final   79.97 input   60.00 | X-H torsion
[ 3793  171  170  167 ] final -124.76 input   60.00 | X-H torsion
[ 3576  185  184  181 ] final -138.54 input   60.00 | X-H torsion
[ 3523  346  345  342 ] final  -29.70 input   60.01 | X-H torsion
[ 3515  339  338  335 ] final -120.01 input   60.00 | X-H torsion
[ 3663  154  153  150 ] final  116.53 input   60.00 | X-H torsion
[ 4280 1130 1129 1126 ] final  -86.48 input   60.00 | X-H torsion

> <Gold.Protein.ActiveResidues>
 VAL20   THR21   CYS22   GLY23   THR24   THR25   THR26   LEU27   ASN28   PRO39  
 ARG40   HIS41   VAL42   CYS44   THR45   SER46   ASP48   MET49   LEU50   PRO52  
 TYR54   TYR118  ASN119  ILE136  GLY138  SER139  PHE140  LEU141  ASN142  GLY143 
 SER144  CYS145  GLY146  SER147  TYR161  HIS163  HIS164  MET165  GLU166  LEU167 
 PRO168  THR169  GLY170  VAL171  HIS172  ALA173  PHE181  PHE185  VAL186  ASP187 
 ARG188  GLN189  THR190  ALA191  GLN192  ALA193 

> <Gold.Protein.RotatedAtoms>
  -15.5589   17.3862   75.4031 H   0  0  0  0  0  0  0  0  0  0  0  0  # atno 3372 bound_to 414 
   -2.7369   21.0018   75.7066 H   0  0  0  0  0  0  0  0  0  0  0  0  # atno 3515 bound_to 339 
   -3.6444   17.5090   72.7532 H   0  0  0  0  0  0  0  0  0  0  0  0  # atno 3523 bound_to 346 
   -7.3071   25.5198   63.0441 H   0  0  0  0  0  0  0  0  0  0  0  0  # atno 3576 bound_to 185 
   -7.7388   29.9866   64.9569 H   0  0  0  0  0  0  0  0  0  0  0  0  # atno 3663 bound_to 154 
   -1.9237   24.5664   72.6910 H   0  0  0  0  0  0  0  0  0  0  0  0  # atno 3793 bound_to 171 
   -6.6841   24.0141   72.2352 H   0  0  0  0  0  0  0  0  0  0  0  0  # atno 3800 bound_to 178 
  -14.9672    8.7205   76.9915 H   0  0  0  0  0  0  0  0  0  0  0  0  # atno 3973 bound_to 1471
  -20.1140   13.8835   64.2375 H   0  0  0  0  0  0  0  0  0  0  0  0  # atno 4183 bound_to 1244
  -14.1410   15.6678   61.0512 H   0  0  0  0  0  0  0  0  0  0  0  0  # atno 4268 bound_to 1114
  -16.4266   19.7503   58.0233 H   0  0  0  0  0  0  0  0  0  0  0  0  # atno 4280 bound_to 1130
  -10.3915   14.8940   57.1512 H   0  0  0  0  0  0  0  0  0  0  0  0  # atno 4409 bound_to 924 
  -15.5187    8.6007   78.5178 LP  0  0  0  0  0  0  0  0  0  0  0  0  # atno 4696 bound_to 1471
  -15.5511    7.3004   77.5304 LP  0  0  0  0  0  0  0  0  0  0  0  0  # atno 4697 bound_to 1471
  -14.2746   17.2120   76.3872 LP  0  0  0  0  0  0  0  0  0  0  0  0  # atno 4731 bound_to 414 
  -14.2565   18.3422   75.2087 LP  0  0  0  0  0  0  0  0  0  0  0  0  # atno 4732 bound_to 414 
  -13.1970   16.4164   62.1450 LP  0  0  0  0  0  0  0  0  0  0  0  0  # atno 4733 bound_to 1114
  -12.5705   15.2606   61.1764 LP  0  0  0  0  0  0  0  0  0  0  0  0  # atno 4734 bound_to 1114
  -11.7573   15.2878   56.3591 LP  0  0  0  0  0  0  0  0  0  0  0  0  # atno 4763 bound_to 924 
  -11.7223   15.3070   57.9916 LP  0  0  0  0  0  0  0  0  0  0  0  0  # atno 4764 bound_to 924 
  -20.1984   13.0117   62.8661 LP  0  0  0  0  0  0  0  0  0  0  0  0  # atno 4771 bound_to 1244
  -21.0566   12.5584   64.1794 LP  0  0  0  0  0  0  0  0  0  0  0  0  # atno 4772 bound_to 1244
   -6.2754   22.7117   71.3492 LP  0  0  0  0  0  0  0  0  0  0  0  0  # atno 4775 bound_to 178 
   -7.6574   22.7100   72.2191 LP  0  0  0  0  0  0  0  0  0  0  0  0  # atno 4776 bound_to 178 
   -2.5534   23.3706   71.7847 LP  0  0  0  0  0  0  0  0  0  0  0  0  # atno 4779 bound_to 171 
   -3.4897   24.6240   72.2525 LP  0  0  0  0  0  0  0  0  0  0  0  0  # atno 4780 bound_to 171 
   -7.8994   26.8548   63.7617 LP  0  0  0  0  0  0  0  0  0  0  0  0  # atno 4783 bound_to 185 
   -8.7497   25.4610   63.7946 LP  0  0  0  0  0  0  0  0  0  0  0  0  # atno 4784 bound_to 185 
   -2.1339   16.9118   72.6548 LP  0  0  0  0  0  0  0  0  0  0  0  0  # atno 4785 bound_to 346 
   -2.3790   18.4368   73.1846 LP  0  0  0  0  0  0  0  0  0  0  0  0  # atno 4786 bound_to 346 
   -3.1079   22.2995   74.7977 LP  0  0  0  0  0  0  0  0  0  0  0  0  # atno 4787 bound_to 339 
   -3.6265   20.8152   74.3569 LP  0  0  0  0  0  0  0  0  0  0  0  0  # atno 4788 bound_to 339 
   -8.4052   28.5671   65.3915 LP  0  0  0  0  0  0  0  0  0  0  0  0  # atno 4797 bound_to 154 
   -6.7814   28.7385   65.3736 LP  0  0  0  0  0  0  0  0  0  0  0  0  # atno 4798 bound_to 154 

$$$$
