unknown|prepared_Mpro-x0305|sdf|1|dock1
  -GOLD-   5 72214353D 1   1.00000     0.00000

 20 20  0  0  0  0  0  0  0  0  1 V2000
  -11.7655   13.3128   67.0650 C   0  0  0  0  0  0  0  0  0  0  0  0
  -11.4108   13.9796   68.3601 C   0  0  0  0  0  0  0  0  0  0  0  0
  -12.6020   14.4321   69.0104 N   0  0  0  0  0  0  0  0  0  0  0  0
  -12.5847   14.8071   70.3940 C   0  0  0  0  0  0  0  0  0  0  0  0
  -11.5613   15.5597   70.9320 C   0  0  0  0  0  0  0  0  0  0  0  0
  -11.5178   15.9361   72.2617 C   0  0  0  0  0  0  0  0  0  0  0  0
  -12.5427   15.5464   73.1041 C   0  0  0  0  0  0  0  0  0  0  0  0
  -12.5665   15.9001   74.4993 C   0  0  0  0  0  0  0  0  0  0  0  0
  -12.5968   16.1993   75.6208 N   0  0  0  0  0  0  0  0  0  0  0  0
  -13.5520   14.7946   72.5367 C   0  0  0  0  0  0  0  0  0  0  0  0
  -13.5671   14.4430   71.2370 N   0  0  0  0  0  0  0  0  0  0  0  0
  -10.9021   12.8703   66.5457 H   0  0  0  0  0  0  0  0  0  0  0  0
  -12.2199   14.1050   66.4104 H   0  0  0  0  0  0  0  0  0  0  0  0
  -12.5706   12.5819   67.2677 H   0  0  0  0  0  0  0  0  0  0  0  0
  -10.7210   14.8335   68.0909 H   0  0  0  0  0  0  0  0  0  0  0  0
  -10.7784   13.3265   69.0136 H   0  0  0  0  0  0  0  0  0  0  0  0
  -13.4882   14.4878   68.4688 H   0  0  0  0  0  0  0  0  0  0  0  0
  -10.7559   15.8599   70.2474 H   0  0  0  0  0  0  0  0  0  0  0  0
  -10.7147   16.5232   72.6709 H   0  0  0  0  0  0  0  0  0  0  0  0
  -14.3665   14.4858   73.2094 H   0  0  0  0  0  0  0  0  0  0  0  0
  1  2  1  0  0  0  0
  2  3  1  0  0  0  0
  3  4  1  0  0  0  0
  4  5  2  0  0  0  0
  5  6  1  0  0  0  0
  6  7  2  0  0  0  0
  7  8  1  0  0  0  0
  8  9  3  0  0  0  0
  7 10  1  0  0  0  0
 10 11  2  0  0  0  0
  4 11  1  0  0  0  0
  1 12  1  0  0  0  0
  1 13  1  0  0  0  0
  1 14  1  0  0  0  0
  2 15  1  0  0  0  0
  2 16  1  0  0  0  0
  3 17  1  0  0  0  0
  5 18  1  0  0  0  0
  6 19  1  0  0  0  0
 10 20  1  0  0  0  0
M  END
> <Gold.Version>
2022.1.0

> <Gold.Id.Protein>
6LU7|6LU7_protein|mol2

> <Gold.PLP.Fitness>
38.1836

> <Gold.PLP.PLP>
-36.0851

> <Gold.PLP.part.hbond>
-2.0000

> <Gold.PLP.part.metal>
0.0000

> <Gold.PLP.part.buried>
-5.9262

> <Gold.PLP.part.nonpolar>
-30.0493

> <Gold.PLP.part.repulsive>
1.0358

> <Gold.PLP.ligand.clash>
0.0000

> <Gold.PLP.ligand.torsion>
0.4392

> <Gold.PLP.Chemscore.Hbond>
0.9920

> <Gold.PLP.Chemscore.CHOScore>
0.0000

> <Gold.PLP.Chemscore.Metal>
0.0000

> <Gold.Chemscore.Hbonds>
donor molecule, donor type, donor heavy atom, donor atom, acceptor molecule, acceptor atom, score
      L1  H     3    17       P1  1266  0.99

> <Gold.PLP.Chemscore.Internal.Correction>
0.0011

> <Gold.Protein.RotatedTorsions>
[ 3973 1471 1470 1467 ] final -158.75 input   60.00 | X-H torsion
[ 3372  414  413  411 ] final  -18.84 input   60.00 | X-H torsion
[ 4268 1114 1113 1110 ] final   -0.98 input   59.99 | X-H torsion
[ 4409  924  923  921 ] final  108.33 input   59.99 | X-H torsion
[ 4183 1244 1243 1241 ] final  179.23 input   59.99 | X-H torsion
[ 3800  178  177  174 ] final  -42.69 input   60.00 | X-H torsion
[ 3793  171  170  167 ] final  -74.14 input   60.00 | X-H torsion
[ 3576  185  184  181 ] final  178.74 input   60.00 | X-H torsion
[ 3523  346  345  342 ] final  -64.47 input   60.01 | X-H torsion
[ 3515  339  338  335 ] final  -45.62 input   60.00 | X-H torsion
[ 3663  154  153  150 ] final -178.26 input   60.00 | X-H torsion
[ 4280 1130 1129 1126 ] final   -0.36 input   60.00 | X-H torsion

> <Gold.Protein.ActiveResidues>
 VAL20   THR21   CYS22   GLY23   THR24   THR25   THR26   LEU27   ASN28   PRO39  
 ARG40   HIS41   VAL42   CYS44   THR45   SER46   ASP48   MET49   LEU50   PRO52  
 TYR54   TYR118  ASN119  ILE136  GLY138  SER139  PHE140  LEU141  ASN142  GLY143 
 SER144  CYS145  GLY146  SER147  TYR161  HIS163  HIS164  MET165  GLU166  LEU167 
 PRO168  THR169  GLY170  VAL171  HIS172  ALA173  PHE181  PHE185  VAL186  ASP187 
 ARG188  GLN189  THR190  ALA191  GLN192  ALA193 

> <Gold.Protein.RotatedAtoms>
  -14.5483   18.3292   75.0433 H   0  0  0  0  0  0  0  0  0  0  0  0  # atno 3372 bound_to 414 
   -3.3306   20.4524   74.9149 H   0  0  0  0  0  0  0  0  0  0  0  0  # atno 3515 bound_to 339 
   -3.3994   17.0299   72.6000 H   0  0  0  0  0  0  0  0  0  0  0  0  # atno 3523 bound_to 346 
   -7.1557   26.1745   63.1612 H   0  0  0  0  0  0  0  0  0  0  0  0  # atno 3576 bound_to 185 
   -6.8375   29.5610   65.1128 H   0  0  0  0  0  0  0  0  0  0  0  0  # atno 3663 bound_to 154 
   -2.6054   24.9837   72.7344 H   0  0  0  0  0  0  0  0  0  0  0  0  # atno 3793 bound_to 171 
   -6.3074   22.6812   71.3516 H   0  0  0  0  0  0  0  0  0  0  0  0  # atno 3800 bound_to 178 
  -15.5263    8.5704   78.5224 H   0  0  0  0  0  0  0  0  0  0  0  0  # atno 3973 bound_to 1471
  -19.9077   13.5499   63.1151 H   0  0  0  0  0  0  0  0  0  0  0  0  # atno 4183 bound_to 1244
  -13.1926   16.4124   62.1389 H   0  0  0  0  0  0  0  0  0  0  0  0  # atno 4268 bound_to 1114
  -16.0775   20.3892   59.0740 H   0  0  0  0  0  0  0  0  0  0  0  0  # atno 4280 bound_to 1130
  -10.4082   14.8961   56.9911 H   0  0  0  0  0  0  0  0  0  0  0  0  # atno 4409 bound_to 924 
  -15.5405    7.3033   77.5015 LP  0  0  0  0  0  0  0  0  0  0  0  0  # atno 4696 bound_to 1471
  -14.9662    8.7491   77.0050 LP  0  0  0  0  0  0  0  0  0  0  0  0  # atno 4697 bound_to 1471
  -15.5125   17.1702   75.6558 LP  0  0  0  0  0  0  0  0  0  0  0  0  # atno 4731 bound_to 414 
  -14.0364   17.4343   76.3024 LP  0  0  0  0  0  0  0  0  0  0  0  0  # atno 4732 bound_to 414 
  -12.5733   15.2584   61.1732 LP  0  0  0  0  0  0  0  0  0  0  0  0  # atno 4733 bound_to 1114
  -14.1493   15.6688   61.0528 LP  0  0  0  0  0  0  0  0  0  0  0  0  # atno 4734 bound_to 1114
  -11.8826   15.3272   56.4543 LP  0  0  0  0  0  0  0  0  0  0  0  0  # atno 4763 bound_to 924 
  -11.5802   15.2655   58.0578 LP  0  0  0  0  0  0  0  0  0  0  0  0  # atno 4764 bound_to 924 
  -20.9417   12.3725   63.5538 LP  0  0  0  0  0  0  0  0  0  0  0  0  # atno 4771 bound_to 1244
  -20.5211   13.5336   64.6222 LP  0  0  0  0  0  0  0  0  0  0  0  0  # atno 4772 bound_to 1244
   -7.6674   22.7456   72.2427 LP  0  0  0  0  0  0  0  0  0  0  0  0  # atno 4775 bound_to 178 
   -6.6448   24.0184   72.2155 LP  0  0  0  0  0  0  0  0  0  0  0  0  # atno 4776 bound_to 178 
   -1.8892   23.6442   72.1508 LP  0  0  0  0  0  0  0  0  0  0  0  0  # atno 4779 bound_to 171 
   -3.4672   23.9301   71.8428 LP  0  0  0  0  0  0  0  0  0  0  0  0  # atno 4780 bound_to 171 
   -8.4885   26.5911   63.9968 LP  0  0  0  0  0  0  0  0  0  0  0  0  # atno 4783 bound_to 185 
   -8.3130   25.0654   63.4416 LP  0  0  0  0  0  0  0  0  0  0  0  0  # atno 4784 bound_to 185 
   -1.8200   17.3437   72.8351 LP  0  0  0  0  0  0  0  0  0  0  0  0  # atno 4785 bound_to 346 
   -2.9397   18.4875   73.1586 LP  0  0  0  0  0  0  0  0  0  0  0  0  # atno 4786 bound_to 346 
   -2.6452   21.7232   75.6655 LP  0  0  0  0  0  0  0  0  0  0  0  0  # atno 4787 bound_to 339 
   -3.4913   21.9448   74.2864 LP  0  0  0  0  0  0  0  0  0  0  0  0  # atno 4788 bound_to 339 
   -8.4643   29.5332   65.0825 LP  0  0  0  0  0  0  0  0  0  0  0  0  # atno 4797 bound_to 154 
   -7.6301   28.2011   65.5256 LP  0  0  0  0  0  0  0  0  0  0  0  0  # atno 4798 bound_to 154 

$$$$
