unknown|prepared_Mpro-x0354|sdf|1|dock4
  -GOLD-   5 72214353D 1   1.00000     0.00000

 38 39  0  0  0  0  0  0  0  0  1 V2000
  -13.0310   15.5054   73.5854 C   0  0  0  0  0  0  0  0  0  0  0  0
  -13.5713   15.2230   72.2699 N   0  0  0  0  0  0  0  0  0  0  0  0
  -14.1669   13.9307   72.2787 C   0  0  0  0  0  0  0  0  0  0  0  0
  -13.0410   12.8957   72.1554 C   0  0  0  0  0  0  0  0  0  0  0  0
  -12.5436   13.0282   70.8038 N   0  0  0  0  0  0  0  0  0  0  0  0
  -12.4890   14.3555   70.2344 C   0  0  0  0  0  0  0  0  0  0  0  0
  -12.5994   15.4416   71.2545 C   0  0  0  0  0  0  0  0  0  0  0  0
  -12.1351   11.8806   70.0968 C   0  0  0  0  0  0  0  0  0  0  0  0
  -11.7053   12.0384   68.9153 O   0  0  0  0  0  0  0  0  0  0  0  0
  -12.2175   10.5576   70.7378 C   0  0  0  0  0  0  0  0  0  0  0  0
  -10.9321   10.0085   70.8418 O   0  0  0  0  0  0  0  0  0  0  0  0
  -10.6800    9.0159   71.7700 C   0  0  0  0  0  0  0  0  0  0  0  0
  -11.7017    8.3108   72.3618 C   0  0  0  0  0  0  0  0  0  0  0  0
  -11.4292    7.3142   73.2997 C   0  0  0  0  0  0  0  0  0  0  0  0
  -10.1469    6.9998   73.6652 C   0  0  0  0  0  0  0  0  0  0  0  0
   -9.8433    5.9422   74.6611 C   0  0  0  0  0  0  0  0  0  0  0  0
   -9.1405    7.7169   73.0603 C   0  0  0  0  0  0  0  0  0  0  0  0
   -9.3727    8.7009   72.1370 C   0  0  0  0  0  0  0  0  0  0  0  0
  -13.2738   14.7081   74.3217 H   0  0  0  0  0  0  0  0  0  0  0  0
  -13.4708   16.4446   74.0176 H   0  0  0  0  0  0  0  0  0  0  0  0
  -11.9237   15.5641   73.5542 H   0  0  0  0  0  0  0  0  0  0  0  0
  -14.8177   13.7526   71.3838 H   0  0  0  0  0  0  0  0  0  0  0  0
  -14.7460   13.7844   73.2016 H   0  0  0  0  0  0  0  0  0  0  0  0
  -13.4143   11.8855   72.3872 H   0  0  0  0  0  0  0  0  0  0  0  0
  -12.1917   13.1947   72.8360 H   0  0  0  0  0  0  0  0  0  0  0  0
  -13.2060   14.5225   69.4276 H   0  0  0  0  0  0  0  0  0  0  0  0
  -11.4607   14.4471   69.7750 H   0  0  0  0  0  0  0  0  0  0  0  0
  -11.5896   15.6340   71.7066 H   0  0  0  0  0  0  0  0  0  0  0  0
  -12.8563   16.3896   70.7232 H   0  0  0  0  0  0  0  0  0  0  0  0
  -12.6292   10.6646   71.7667 H   0  0  0  0  0  0  0  0  0  0  0  0
  -12.9165    9.8710   70.2142 H   0  0  0  0  0  0  0  0  0  0  0  0
  -12.7642    8.4673   72.1319 H   0  0  0  0  0  0  0  0  0  0  0  0
  -12.2487    6.7541   73.7702 H   0  0  0  0  0  0  0  0  0  0  0  0
  -10.7215    5.7110   75.2903 H   0  0  0  0  0  0  0  0  0  0  0  0
   -8.9369    6.1748   75.2588 H   0  0  0  0  0  0  0  0  0  0  0  0
   -9.6020    4.9889   74.1076 H   0  0  0  0  0  0  0  0  0  0  0  0
   -8.1105    7.4717   73.3467 H   0  0  0  0  0  0  0  0  0  0  0  0
   -8.6016    9.2727   71.6528 H   0  0  0  0  0  0  0  0  0  0  0  0
  1  2  1  0  0  0  0
  2  3  1  0  0  0  0
  3  4  1  0  0  0  0
  4  5  1  0  0  0  0
  5  6  1  0  0  0  0
  6  7  1  0  0  0  0
  5  8  1  0  0  0  0
  8  9  2  0  0  0  0
  8 10  1  0  0  0  0
 10 11  1  0  0  0  0
 11 12  1  0  0  0  0
 12 13  2  0  0  0  0
 13 14  1  0  0  0  0
 14 15  2  0  0  0  0
 15 16  1  0  0  0  0
 15 17  1  0  0  0  0
 17 18  2  0  0  0  0
  7  2  1  0  0  0  0
 12 18  1  0  0  0  0
  1 19  1  0  0  0  0
  1 20  1  0  0  0  0
  1 21  1  0  0  0  0
  3 22  1  0  0  0  0
  3 23  1  0  0  0  0
  4 24  1  0  0  0  0
  4 25  1  0  0  0  0
  6 26  1  0  0  0  0
  6 27  1  0  0  0  0
  7 28  1  0  0  0  0
  7 29  1  0  0  0  0
 10 30  1  0  0  0  0
 10 31  1  0  0  0  0
 13 32  1  0  0  0  0
 14 33  1  0  0  0  0
 16 34  1  0  0  0  0
 16 35  1  0  0  0  0
 16 36  1  0  0  0  0
 17 37  1  0  0  0  0
 18 38  1  0  0  0  0
M  END
> <Gold.Version>
2022.1.0

> <Gold.Id.Protein>
6LU7|6LU7_protein|mol2

> <Gold.PLP.Fitness>
46.5330

> <Gold.PLP.PLP>
-47.1817

> <Gold.PLP.part.hbond>
0.0000

> <Gold.PLP.part.metal>
0.0000

> <Gold.PLP.part.buried>
-5.7025

> <Gold.PLP.part.nonpolar>
-42.5439

> <Gold.PLP.part.repulsive>
0.3152

> <Gold.PLP.ligand.clash>
0.0000

> <Gold.PLP.ligand.torsion>
0.3299

> <Gold.PLP.Chemscore.Hbond>
0.0000

> <Gold.PLP.Chemscore.CHOScore>
0.0000

> <Gold.PLP.Chemscore.Metal>
0.0000

> <Gold.PLP.Chemscore.Internal.Correction>
0.0110

> <Gold.Protein.RotatedTorsions>
[ 3973 1471 1470 1467 ] final  167.11 input   60.00 | X-H torsion
[ 3372  414  413  411 ] final -160.14 input   60.00 | X-H torsion
[ 4268 1114 1113 1110 ] final -153.33 input   59.99 | X-H torsion
[ 4409  924  923  921 ] final -172.31 input   59.99 | X-H torsion
[ 4183 1244 1243 1241 ] final -128.38 input   59.99 | X-H torsion
[ 3800  178  177  174 ] final  -29.42 input   60.00 | X-H torsion
[ 3793  171  170  167 ] final  146.86 input   60.00 | X-H torsion
[ 3576  185  184  181 ] final   13.85 input   60.00 | X-H torsion
[ 3523  346  345  342 ] final  135.13 input   60.01 | X-H torsion
[ 3515  339  338  335 ] final -129.76 input   60.00 | X-H torsion
[ 3663  154  153  150 ] final  149.93 input   60.00 | X-H torsion
[ 4280 1130 1129 1126 ] final  115.42 input   60.00 | X-H torsion

> <Gold.Protein.ActiveResidues>
 VAL20   THR21   CYS22   GLY23   THR24   THR25   THR26   LEU27   ASN28   PRO39  
 ARG40   HIS41   VAL42   CYS44   THR45   SER46   ASP48   MET49   LEU50   PRO52  
 TYR54   TYR118  ASN119  ILE136  GLY138  SER139  PHE140  LEU141  ASN142  GLY143 
 SER144  CYS145  GLY146  SER147  TYR161  HIS163  HIS164  MET165  GLU166  LEU167 
 PRO168  THR169  GLY170  VAL171  HIS172  ALA173  PHE181  PHE185  VAL186  ASP187 
 ARG188  GLN189  THR190  ALA191  GLN192  ALA193 

> <Gold.Protein.RotatedAtoms>
  -15.3463   17.0203   75.9214 H   0  0  0  0  0  0  0  0  0  0  0  0  # atno 3372 bound_to 414 
   -2.6926   21.1512   75.7386 H   0  0  0  0  0  0  0  0  0  0  0  0  # atno 3515 bound_to 339 
   -1.8673   17.9528   73.0532 H   0  0  0  0  0  0  0  0  0  0  0  0  # atno 3523 bound_to 346 
   -8.8080   25.9492   63.9762 H   0  0  0  0  0  0  0  0  0  0  0  0  # atno 3576 bound_to 185 
   -7.2104   29.8943   64.9982 H   0  0  0  0  0  0  0  0  0  0  0  0  # atno 3663 bound_to 154 
   -2.0963   23.4810   71.9872 H   0  0  0  0  0  0  0  0  0  0  0  0  # atno 3793 bound_to 171 
   -6.1879   22.8612   71.3635 H   0  0  0  0  0  0  0  0  0  0  0  0  # atno 3800 bound_to 178 
  -15.6795    8.0427   78.5367 H   0  0  0  0  0  0  0  0  0  0  0  0  # atno 3973 bound_to 1471
  -19.9306   13.9229   63.8522 H   0  0  0  0  0  0  0  0  0  0  0  0  # atno 4183 bound_to 1244
  -12.9842   15.1152   60.8822 H   0  0  0  0  0  0  0  0  0  0  0  0  # atno 4268 bound_to 1114
  -15.5319   18.9382   59.4086 H   0  0  0  0  0  0  0  0  0  0  0  0  # atno 4280 bound_to 1130
  -10.9550   15.0795   58.0382 H   0  0  0  0  0  0  0  0  0  0  0  0  # atno 4409 bound_to 924 
  -15.3243    7.5162   77.0386 LP  0  0  0  0  0  0  0  0  0  0  0  0  # atno 4696 bound_to 1471
  -15.0281    9.0675   77.4535 LP  0  0  0  0  0  0  0  0  0  0  0  0  # atno 4697 bound_to 1471
  -13.8790   17.6925   76.1292 LP  0  0  0  0  0  0  0  0  0  0  0  0  # atno 4731 bound_to 414 
  -14.8662   18.2302   74.9447 LP  0  0  0  0  0  0  0  0  0  0  0  0  # atno 4732 bound_to 414 
  -14.2095   16.0435   61.4158 LP  0  0  0  0  0  0  0  0  0  0  0  0  # atno 4733 bound_to 1114
  -12.7230   16.1900   62.0757 LP  0  0  0  0  0  0  0  0  0  0  0  0  # atno 4734 bound_to 1114
  -10.7299   14.9802   56.4297 LP  0  0  0  0  0  0  0  0  0  0  0  0  # atno 4763 bound_to 924 
  -12.1821   15.4276   57.0277 LP  0  0  0  0  0  0  0  0  0  0  0  0  # atno 4764 bound_to 924 
  -20.4689   12.6845   62.9440 LP  0  0  0  0  0  0  0  0  0  0  0  0  # atno 4771 bound_to 1244
  -20.9708   12.8460   64.4896 LP  0  0  0  0  0  0  0  0  0  0  0  0  # atno 4772 bound_to 1244
   -7.6008   22.5785   72.1197 LP  0  0  0  0  0  0  0  0  0  0  0  0  # atno 4775 bound_to 178 
   -6.8318   24.0042   72.3264 LP  0  0  0  0  0  0  0  0  0  0  0  0  # atno 4776 bound_to 178 
   -3.5576   24.1968   71.9755 LP  0  0  0  0  0  0  0  0  0  0  0  0  # atno 4779 bound_to 171 
   -2.3116   24.8909   72.7707 LP  0  0  0  0  0  0  0  0  0  0  0  0  # atno 4780 bound_to 171 
   -7.6722   25.1528   63.1255 LP  0  0  0  0  0  0  0  0  0  0  0  0  # atno 4783 bound_to 185 
   -7.4652   26.7306   63.4921 LP  0  0  0  0  0  0  0  0  0  0  0  0  # atno 4784 bound_to 185 
   -3.4802   18.1618   72.9987 LP  0  0  0  0  0  0  0  0  0  0  0  0  # atno 4785 bound_to 346 
   -2.8223   16.7398   72.5386 LP  0  0  0  0  0  0  0  0  0  0  0  0  # atno 4786 bound_to 346 
   -3.1960   22.2682   74.6676 LP  0  0  0  0  0  0  0  0  0  0  0  0  # atno 4787 bound_to 339 
   -3.5829   20.6960   74.4548 LP  0  0  0  0  0  0  0  0  0  0  0  0  # atno 4788 bound_to 339 
   -8.5837   29.0534   65.2326 LP  0  0  0  0  0  0  0  0  0  0  0  0  # atno 4797 bound_to 154 
   -7.1351   28.3452   65.4909 LP  0  0  0  0  0  0  0  0  0  0  0  0  # atno 4798 bound_to 154 

$$$$
