unknown|prepared_Mpro-x0354|sdf|1|dock1
  -GOLD-   5 72214353D 1   1.00000     0.00000

 38 39  0  0  0  0  0  0  0  0  1 V2000
  -12.1290   12.5726   63.4037 C   0  0  0  0  0  0  0  0  0  0  0  0
  -11.5928   13.2893   64.5444 N   0  0  0  0  0  0  0  0  0  0  0  0
  -10.5082   12.5485   65.0920 C   0  0  0  0  0  0  0  0  0  0  0  0
  -11.0975   11.4173   65.9448 C   0  0  0  0  0  0  0  0  0  0  0  0
  -11.6775   12.0682   67.0988 N   0  0  0  0  0  0  0  0  0  0  0  0
  -12.3178   13.3483   66.8977 C   0  0  0  0  0  0  0  0  0  0  0  0
  -12.6201   13.6395   65.4639 C   0  0  0  0  0  0  0  0  0  0  0  0
  -11.6019   11.4460   68.3601 C   0  0  0  0  0  0  0  0  0  0  0  0
  -11.0184   10.3233   68.4291 O   0  0  0  0  0  0  0  0  0  0  0  0
  -12.1908   12.1046   69.5380 C   0  0  0  0  0  0  0  0  0  0  0  0
  -11.6679   13.3994   69.6589 O   0  0  0  0  0  0  0  0  0  0  0  0
  -11.9295   14.1448   70.7931 C   0  0  0  0  0  0  0  0  0  0  0  0
  -12.6850   13.6396   71.8252 C   0  0  0  0  0  0  0  0  0  0  0  0
  -12.9422   14.4074   72.9616 C   0  0  0  0  0  0  0  0  0  0  0  0
  -12.4576   15.6818   73.0951 C   0  0  0  0  0  0  0  0  0  0  0  0
  -12.7236   16.5089   74.2983 C   0  0  0  0  0  0  0  0  0  0  0  0
  -11.7039   16.1668   72.0512 C   0  0  0  0  0  0  0  0  0  0  0  0
  -11.4329   15.4408   70.9225 C   0  0  0  0  0  0  0  0  0  0  0  0
  -11.5326   11.6674   63.1555 H   0  0  0  0  0  0  0  0  0  0  0  0
  -12.1033   13.2022   62.4735 H   0  0  0  0  0  0  0  0  0  0  0  0
  -13.1576   12.2125   63.6105 H   0  0  0  0  0  0  0  0  0  0  0  0
   -9.8931   13.1541   65.8068 H   0  0  0  0  0  0  0  0  0  0  0  0
   -9.8719   12.1534   64.2873 H   0  0  0  0  0  0  0  0  0  0  0  0
  -10.3209   10.6797   66.2027 H   0  0  0  0  0  0  0  0  0  0  0  0
  -11.9551   10.9437   65.3841 H   0  0  0  0  0  0  0  0  0  0  0  0
  -11.7834   14.1877   67.3478 H   0  0  0  0  0  0  0  0  0  0  0  0
  -13.3122   13.2776   67.4297 H   0  0  0  0  0  0  0  0  0  0  0  0
  -13.5905   13.1510   65.1795 H   0  0  0  0  0  0  0  0  0  0  0  0
  -12.8164   14.7347   65.3678 H   0  0  0  0  0  0  0  0  0  0  0  0
  -13.2931   12.1904   69.4075 H   0  0  0  0  0  0  0  0  0  0  0  0
  -12.0527   11.5169   70.4706 H   0  0  0  0  0  0  0  0  0  0  0  0
  -13.1084   12.6262   71.8322 H   0  0  0  0  0  0  0  0  0  0  0  0
  -13.5466   13.9997   73.7833 H   0  0  0  0  0  0  0  0  0  0  0  0
  -13.5945   16.1345   74.8656 H   0  0  0  0  0  0  0  0  0  0  0  0
  -12.8016   17.5900   74.0570 H   0  0  0  0  0  0  0  0  0  0  0  0
  -11.8409   16.4195   74.9956 H   0  0  0  0  0  0  0  0  0  0  0  0
  -11.3115   17.1863   72.1497 H   0  0  0  0  0  0  0  0  0  0  0  0
  -10.8467   15.8004   70.0960 H   0  0  0  0  0  0  0  0  0  0  0  0
  1  2  1  0  0  0  0
  2  3  1  0  0  0  0
  3  4  1  0  0  0  0
  4  5  1  0  0  0  0
  5  6  1  0  0  0  0
  6  7  1  0  0  0  0
  5  8  1  0  0  0  0
  8  9  2  0  0  0  0
  8 10  1  0  0  0  0
 10 11  1  0  0  0  0
 11 12  1  0  0  0  0
 12 13  2  0  0  0  0
 13 14  1  0  0  0  0
 14 15  2  0  0  0  0
 15 16  1  0  0  0  0
 15 17  1  0  0  0  0
 17 18  2  0  0  0  0
  7  2  1  0  0  0  0
 12 18  1  0  0  0  0
  1 19  1  0  0  0  0
  1 20  1  0  0  0  0
  1 21  1  0  0  0  0
  3 22  1  0  0  0  0
  3 23  1  0  0  0  0
  4 24  1  0  0  0  0
  4 25  1  0  0  0  0
  6 26  1  0  0  0  0
  6 27  1  0  0  0  0
  7 28  1  0  0  0  0
  7 29  1  0  0  0  0
 10 30  1  0  0  0  0
 10 31  1  0  0  0  0
 13 32  1  0  0  0  0
 14 33  1  0  0  0  0
 16 34  1  0  0  0  0
 16 35  1  0  0  0  0
 16 36  1  0  0  0  0
 17 37  1  0  0  0  0
 18 38  1  0  0  0  0
M  END
> <Gold.Version>
2022.1.0

> <Gold.Id.Protein>
6LU7|6LU7_protein|mol2

> <Gold.PLP.Fitness>
52.2584

> <Gold.PLP.PLP>
-52.3445

> <Gold.PLP.part.hbond>
0.0000

> <Gold.PLP.part.metal>
0.0000

> <Gold.PLP.part.buried>
-5.4137

> <Gold.PLP.part.nonpolar>
-48.1986

> <Gold.PLP.part.repulsive>
0.3920

> <Gold.PLP.ligand.clash>
0.0000

> <Gold.PLP.ligand.torsion>
0.0517

> <Gold.PLP.Chemscore.Hbond>
0.0000

> <Gold.PLP.Chemscore.CHOScore>
0.0000

> <Gold.PLP.Chemscore.Metal>
0.0000

> <Gold.PLP.Chemscore.Internal.Correction>
0.0173

> <Gold.Protein.RotatedTorsions>
[ 3973 1471 1470 1467 ] final  172.38 input   60.00 | X-H torsion
[ 3372  414  413  411 ] final  -42.85 input   60.00 | X-H torsion
[ 4268 1114 1113 1110 ] final  102.65 input   59.99 | X-H torsion
[ 4409  924  923  921 ] final  -88.43 input   59.99 | X-H torsion
[ 4183 1244 1243 1241 ] final    1.85 input   59.99 | X-H torsion
[ 3800  178  177  174 ] final -142.95 input   60.00 | X-H torsion
[ 3793  171  170  167 ] final  -55.32 input   60.00 | X-H torsion
[ 3576  185  184  181 ] final   16.30 input   60.00 | X-H torsion
[ 3523  346  345  342 ] final -145.63 input   60.01 | X-H torsion
[ 3515  339  338  335 ] final  -80.28 input   60.00 | X-H torsion
[ 3663  154  153  150 ] final   99.00 input   60.00 | X-H torsion
[ 4280 1130 1129 1126 ] final  -52.16 input   60.00 | X-H torsion

> <Gold.Protein.ActiveResidues>
 VAL20   THR21   CYS22   GLY23   THR24   THR25   THR26   LEU27   ASN28   PRO39  
 ARG40   HIS41   VAL42   CYS44   THR45   SER46   ASP48   MET49   LEU50   PRO52  
 TYR54   TYR118  ASN119  ILE136  GLY138  SER139  PHE140  LEU141  ASN142  GLY143 
 SER144  CYS145  GLY146  SER147  TYR161  HIS163  HIS164  MET165  GLU166  LEU167 
 PRO168  THR169  GLY170  VAL171  HIS172  ALA173  PHE181  PHE185  VAL186  ASP187 
 ARG188  GLN189  THR190  ALA191  GLN192  ALA193 

> <Gold.Protein.RotatedAtoms>
  -14.9056   18.2087   74.9464 H   0  0  0  0  0  0  0  0  0  0  0  0  # atno 3372 bound_to 414 
   -3.0240   20.5433   75.3719 H   0  0  0  0  0  0  0  0  0  0  0  0  # atno 3515 bound_to 339 
   -2.1914   16.8800   72.6413 H   0  0  0  0  0  0  0  0  0  0  0  0  # atno 3523 bound_to 346 
   -8.8021   25.9879   63.9848 H   0  0  0  0  0  0  0  0  0  0  0  0  # atno 3576 bound_to 185 
   -8.0147   29.9159   64.9731 H   0  0  0  0  0  0  0  0  0  0  0  0  # atno 3663 bound_to 154 
   -2.8999   24.9941   72.6511 H   0  0  0  0  0  0  0  0  0  0  0  0  # atno 3793 bound_to 171 
   -7.5502   22.5129   72.0531 H   0  0  0  0  0  0  0  0  0  0  0  0  # atno 3800 bound_to 178 
  -15.6625    8.1251   78.5549 H   0  0  0  0  0  0  0  0  0  0  0  0  # atno 3973 bound_to 1471
  -21.0162   12.7277   64.3796 H   0  0  0  0  0  0  0  0  0  0  0  0  # atno 4183 bound_to 1244
  -14.2088   15.8626   61.2273 H   0  0  0  0  0  0  0  0  0  0  0  0  # atno 4268 bound_to 1114
  -16.3882   20.2002   58.3415 H   0  0  0  0  0  0  0  0  0  0  0  0  # atno 4280 bound_to 1130
  -12.0800   15.4097   57.6011 H   0  0  0  0  0  0  0  0  0  0  0  0  # atno 4409 bound_to 924 
  -15.3591    7.4648   77.0989 LP  0  0  0  0  0  0  0  0  0  0  0  0  # atno 4696 bound_to 1471
  -15.0104    9.0360   77.3748 LP  0  0  0  0  0  0  0  0  0  0  0  0  # atno 4697 bound_to 1471
  -15.3223   17.0004   75.9537 LP  0  0  0  0  0  0  0  0  0  0  0  0  # atno 4731 bound_to 414 
  -13.8667   17.7256   76.1020 LP  0  0  0  0  0  0  0  0  0  0  0  0  # atno 4732 bound_to 414 
  -12.9405   16.3228   62.1370 LP  0  0  0  0  0  0  0  0  0  0  0  0  # atno 4733 bound_to 1114
  -12.7587   15.1581   61.0069 LP  0  0  0  0  0  0  0  0  0  0  0  0  # atno 4734 bound_to 1114
  -10.5235   14.9408   57.6722 LP  0  0  0  0  0  0  0  0  0  0  0  0  # atno 4763 bound_to 924 
  -11.2555   15.1345   56.2255 LP  0  0  0  0  0  0  0  0  0  0  0  0  # atno 4764 bound_to 924 
  -19.9850   13.9312   64.0106 LP  0  0  0  0  0  0  0  0  0  0  0  0  # atno 4771 bound_to 1244
  -20.3614   12.8029   62.8918 LP  0  0  0  0  0  0  0  0  0  0  0  0  # atno 4772 bound_to 1244
   -6.9244   23.9805   72.3733 LP  0  0  0  0  0  0  0  0  0  0  0  0  # atno 4775 bound_to 178 
   -6.1363   22.9529   71.3784 LP  0  0  0  0  0  0  0  0  0  0  0  0  # atno 4776 bound_to 178 
   -1.7696   23.8704   72.3229 LP  0  0  0  0  0  0  0  0  0  0  0  0  # atno 4779 bound_to 171 
   -3.2903   23.6934   71.7546 LP  0  0  0  0  0  0  0  0  0  0  0  0  # atno 4780 bound_to 171 
   -7.7058   25.1343   63.1379 LP  0  0  0  0  0  0  0  0  0  0  0  0  # atno 4783 bound_to 185 
   -7.4375   26.7102   63.4711 LP  0  0  0  0  0  0  0  0  0  0  0  0  # atno 4784 bound_to 185 
   -2.3178   18.4103   73.1799 LP  0  0  0  0  0  0  0  0  0  0  0  0  # atno 4785 bound_to 346 
   -3.6584   17.5718   72.7722 LP  0  0  0  0  0  0  0  0  0  0  0  0  # atno 4786 bound_to 346 
   -2.7888   22.1530   75.3335 LP  0  0  0  0  0  0  0  0  0  0  0  0  # atno 4787 bound_to 339 
   -3.6565   21.4235   74.1581 LP  0  0  0  0  0  0  0  0  0  0  0  0  # atno 4788 bound_to 339 
   -8.2032   28.3738   65.4576 LP  0  0  0  0  0  0  0  0  0  0  0  0  # atno 4797 bound_to 154 
   -6.7056   29.0031   65.2911 LP  0  0  0  0  0  0  0  0  0  0  0  0  # atno 4798 bound_to 154 

$$$$
