unknown|prepared_Mpro-x0305|sdf|1|dock3
  -GOLD-   5 72214353D 1   1.00000     0.00000

 20 20  0  0  0  0  0  0  0  0  1 V2000
  -11.9970   14.5694   67.3963 C   0  0  0  0  0  0  0  0  0  0  0  0
  -11.2551   13.4758   68.1047 C   0  0  0  0  0  0  0  0  0  0  0  0
  -12.0244   13.0165   69.2199 N   0  0  0  0  0  0  0  0  0  0  0  0
  -12.1629   13.8230   70.3970 C   0  0  0  0  0  0  0  0  0  0  0  0
  -11.5470   15.0520   70.5146 C   0  0  0  0  0  0  0  0  0  0  0  0
  -11.6624   15.8512   71.6369 C   0  0  0  0  0  0  0  0  0  0  0  0
  -12.4287   15.4101   72.6999 C   0  0  0  0  0  0  0  0  0  0  0  0
  -12.5955   16.1864   73.9007 C   0  0  0  0  0  0  0  0  0  0  0  0
  -12.7208   16.7997   74.8787 N   0  0  0  0  0  0  0  0  0  0  0  0
  -13.0321   14.1773   72.5525 C   0  0  0  0  0  0  0  0  0  0  0  0
  -12.9013   13.4207   71.4463 N   0  0  0  0  0  0  0  0  0  0  0  0
  -11.4981   14.9190   66.4800 H   0  0  0  0  0  0  0  0  0  0  0  0
  -12.0746   15.4252   68.1203 H   0  0  0  0  0  0  0  0  0  0  0  0
  -13.0317   14.2202   67.2204 H   0  0  0  0  0  0  0  0  0  0  0  0
  -10.2686   13.9259   68.4232 H   0  0  0  0  0  0  0  0  0  0  0  0
  -10.9556   12.6492   67.4115 H   0  0  0  0  0  0  0  0  0  0  0  0
  -12.4866   12.0860   69.1712 H   0  0  0  0  0  0  0  0  0  0  0  0
  -10.9423   15.3856   69.6599 H   0  0  0  0  0  0  0  0  0  0  0  0
  -11.1776   16.8081   71.7181 H   0  0  0  0  0  0  0  0  0  0  0  0
  -13.6415   13.8286   73.4000 H   0  0  0  0  0  0  0  0  0  0  0  0
  1  2  1  0  0  0  0
  2  3  1  0  0  0  0
  3  4  1  0  0  0  0
  4  5  2  0  0  0  0
  5  6  1  0  0  0  0
  6  7  2  0  0  0  0
  7  8  1  0  0  0  0
  8  9  3  0  0  0  0
  7 10  1  0  0  0  0
 10 11  2  0  0  0  0
  4 11  1  0  0  0  0
  1 12  1  0  0  0  0
  1 13  1  0  0  0  0
  1 14  1  0  0  0  0
  2 15  1  0  0  0  0
  2 16  1  0  0  0  0
  3 17  1  0  0  0  0
  5 18  1  0  0  0  0
  6 19  1  0  0  0  0
 10 20  1  0  0  0  0
M  END
> <Gold.Version>
2022.1.0

> <Gold.Id.Protein>
6LU7|6LU7_protein|mol2

> <Gold.PLP.Fitness>
33.6610

> <Gold.PLP.PLP>
-33.6310

> <Gold.PLP.part.hbond>
-0.8873

> <Gold.PLP.part.metal>
0.0000

> <Gold.PLP.part.buried>
-6.1124

> <Gold.PLP.part.nonpolar>
-27.8141

> <Gold.PLP.part.repulsive>
0.2836

> <Gold.PLP.ligand.clash>
0.0000

> <Gold.PLP.ligand.torsion>
0.0697

> <Gold.PLP.Chemscore.Hbond>
0.0562

> <Gold.PLP.Chemscore.CHOScore>
0.0000

> <Gold.PLP.Chemscore.Metal>
0.0000

> <Gold.Chemscore.Hbonds>
donor molecule, donor type, donor heavy atom, donor atom, acceptor molecule, acceptor atom, score
      P1  H   414  3372       L1     9  0.06

> <Gold.PLP.Chemscore.Internal.Correction>
0.0011

> <Gold.Protein.RotatedTorsions>
[ 3973 1471 1470 1467 ] final -149.09 input   60.00 | X-H torsion
[ 3372  414  413  411 ] final    7.83 input   60.00 | X-H torsion
[ 4268 1114 1113 1110 ] final -124.92 input   59.99 | X-H torsion
[ 4409  924  923  921 ] final -133.43 input   59.99 | X-H torsion
[ 4183 1244 1243 1241 ] final    9.15 input   59.99 | X-H torsion
[ 3800  178  177  174 ] final   10.10 input   60.00 | X-H torsion
[ 3793  171  170  167 ] final  169.55 input   60.00 | X-H torsion
[ 3576  185  184  181 ] final   -7.78 input   60.00 | X-H torsion
[ 3523  346  345  342 ] final   82.79 input   60.01 | X-H torsion
[ 3515  339  338  335 ] final   79.75 input   60.00 | X-H torsion
[ 3663  154  153  150 ] final -137.23 input   60.00 | X-H torsion
[ 4280 1130 1129 1126 ] final    5.34 input   60.00 | X-H torsion

> <Gold.Protein.ActiveResidues>
 VAL20   THR21   CYS22   GLY23   THR24   THR25   THR26   LEU27   ASN28   PRO39  
 ARG40   HIS41   VAL42   CYS44   THR45   SER46   ASP48   MET49   LEU50   PRO52  
 TYR54   TYR118  ASN119  ILE136  GLY138  SER139  PHE140  LEU141  ASN142  GLY143 
 SER144  CYS145  GLY146  SER147  TYR161  HIS163  HIS164  MET165  GLU166  LEU167 
 PRO168  THR169  GLY170  VAL171  HIS172  ALA173  PHE181  PHE185  VAL186  ASP187 
 ARG188  GLN189  THR190  ALA191  GLN192  ALA193 

> <Gold.Protein.RotatedAtoms>
  -14.1844   18.3246   75.2761 H   0  0  0  0  0  0  0  0  0  0  0  0  # atno 3372 bound_to 414 
   -3.4527   22.0071   74.3356 H   0  0  0  0  0  0  0  0  0  0  0  0  # atno 3515 bound_to 339 
   -2.4983   18.4681   73.1890 H   0  0  0  0  0  0  0  0  0  0  0  0  # atno 3523 bound_to 346 
   -8.7936   25.6154   63.8676 H   0  0  0  0  0  0  0  0  0  0  0  0  # atno 3576 bound_to 185 
   -6.7212   28.9464   65.3111 H   0  0  0  0  0  0  0  0  0  0  0  0  # atno 3663 bound_to 154 
   -1.8638   23.6894   72.1829 H   0  0  0  0  0  0  0  0  0  0  0  0  # atno 3793 bound_to 171 
   -6.0638   23.4468   71.5693 H   0  0  0  0  0  0  0  0  0  0  0  0  # atno 3800 bound_to 178 
  -15.4685    8.7043   78.4627 H   0  0  0  0  0  0  0  0  0  0  0  0  # atno 3973 bound_to 1471
  -21.0391   12.6490   64.2931 H   0  0  0  0  0  0  0  0  0  0  0  0  # atno 4183 bound_to 1244
  -12.6174   15.2355   61.1312 H   0  0  0  0  0  0  0  0  0  0  0  0  # atno 4268 bound_to 1114
  -16.0328   20.3658   59.1522 H   0  0  0  0  0  0  0  0  0  0  0  0  # atno 4280 bound_to 1130
  -11.5513   15.2592   58.0605 H   0  0  0  0  0  0  0  0  0  0  0  0  # atno 4409 bound_to 924 
  -15.5923    7.2991   77.6515 LP  0  0  0  0  0  0  0  0  0  0  0  0  # atno 4696 bound_to 1471
  -14.9726    8.6184   76.9152 LP  0  0  0  0  0  0  0  0  0  0  0  0  # atno 4697 bound_to 1471
  -15.5580   17.4536   75.3290 LP  0  0  0  0  0  0  0  0  0  0  0  0  # atno 4731 bound_to 414 
  -14.3573   17.1556   76.3948 LP  0  0  0  0  0  0  0  0  0  0  0  0  # atno 4732 bound_to 414 
  -14.1719   15.7150   61.0923 LP  0  0  0  0  0  0  0  0  0  0  0  0  # atno 4733 bound_to 1114
  -13.1301   16.3975   62.1485 LP  0  0  0  0  0  0  0  0  0  0  0  0  # atno 4734 bound_to 1114
  -10.4083   14.8932   56.9615 LP  0  0  0  0  0  0  0  0  0  0  0  0  # atno 4763 bound_to 924 
  -11.9031   15.3337   56.4735 LP  0  0  0  0  0  0  0  0  0  0  0  0  # atno 4764 bound_to 924 
  -20.0370   13.9191   64.1181 LP  0  0  0  0  0  0  0  0  0  0  0  0  # atno 4771 bound_to 1244
  -20.2864   12.8943   62.8714 LP  0  0  0  0  0  0  0  0  0  0  0  0  # atno 4772 bound_to 1244
   -7.1953   22.2875   71.7232 LP  0  0  0  0  0  0  0  0  0  0  0  0  # atno 4775 bound_to 178 
   -7.3621   23.7054   72.5157 LP  0  0  0  0  0  0  0  0  0  0  0  0  # atno 4776 bound_to 178 
   -3.4389   23.8806   71.8218 LP  0  0  0  0  0  0  0  0  0  0  0  0  # atno 4779 bound_to 171 
   -2.6644   24.9973   72.7273 LP  0  0  0  0  0  0  0  0  0  0  0  0  # atno 4780 bound_to 171 
   -7.4070   25.3747   63.0508 LP  0  0  0  0  0  0  0  0  0  0  0  0  # atno 4783 bound_to 185 
   -7.7449   26.8449   63.6762 LP  0  0  0  0  0  0  0  0  0  0  0  0  # atno 4784 bound_to 185 
   -3.6242   17.3949   72.7112 LP  0  0  0  0  0  0  0  0  0  0  0  0  # atno 4785 bound_to 346 
   -2.0429   16.9879   72.6894 LP  0  0  0  0  0  0  0  0  0  0  0  0  # atno 4786 bound_to 346 
   -3.3747   20.4616   74.8391 LP  0  0  0  0  0  0  0  0  0  0  0  0  # atno 4787 bound_to 339 
   -2.6387   21.6407   75.6962 LP  0  0  0  0  0  0  0  0  0  0  0  0  # atno 4788 bound_to 339 
   -7.9597   29.9430   64.9634 LP  0  0  0  0  0  0  0  0  0  0  0  0  # atno 4797 bound_to 154 
   -8.2517   28.4102   65.4449 LP  0  0  0  0  0  0  0  0  0  0  0  0  # atno 4798 bound_to 154 

$$$$
