unknown|prepared_Mpro-x0397|sdf|1|dock1
  -GOLD-   5 72214353D 1   1.00000     0.00000

 30 31  0  0  0  0  0  0  0  0  1 V2000
  -12.0070   12.1515   70.3741 C   0  0  0  0  0  0  0  0  0  0  0  0
  -11.9343   13.0907   69.2672 N   0  0  0  0  0  0  0  0  0  0  0  0
  -11.7941   14.5196   69.5602 C   0  0  0  0  0  0  0  0  0  0  0  0
  -12.3635   14.8296   70.9047 C   0  0  0  0  0  0  0  0  0  0  0  0
  -11.6874   15.1606   72.0450 C   0  0  0  0  0  0  0  0  0  0  0  0
  -12.6397   15.3560   73.0289 C   0  0  0  0  0  0  0  0  0  0  0  0
  -12.4428   15.7301   74.4480 C   0  0  0  0  0  0  0  0  0  0  0  0
  -13.8101   15.1414   72.4580 O   0  0  0  0  0  0  0  0  0  0  0  0
  -13.6625   14.8317   71.2120 N   0  0  0  0  0  0  0  0  0  0  0  0
  -11.9984   12.6250   67.9300 C   0  0  0  0  0  0  0  0  0  0  0  0
  -12.1187   11.3897   67.7282 O   0  0  0  0  0  0  0  0  0  0  0  0
  -11.9257   13.5568   66.8696 N   0  0  0  0  0  0  0  0  0  0  0  0
  -11.9854   13.1419   65.5077 C   0  0  0  0  0  0  0  0  0  0  0  0
  -10.8541   13.5638   64.6024 C   0  0  0  0  0  0  0  0  0  0  0  0
  -11.0578   12.1347   64.9450 C   0  0  0  0  0  0  0  0  0  0  0  0
  -12.8689   11.4508   70.1888 H   0  0  0  0  0  0  0  0  0  0  0  0
  -12.1300   12.6664   71.3432 H   0  0  0  0  0  0  0  0  0  0  0  0
  -11.0738   11.5481   70.3871 H   0  0  0  0  0  0  0  0  0  0  0  0
  -10.7142   14.7729   69.5862 H   0  0  0  0  0  0  0  0  0  0  0  0
  -12.2806   15.1268   68.7667 H   0  0  0  0  0  0  0  0  0  0  0  0
  -10.6154   15.2581   72.1804 H   0  0  0  0  0  0  0  0  0  0  0  0
  -13.0693   15.0612   75.0805 H   0  0  0  0  0  0  0  0  0  0  0  0
  -12.8159   16.7540   74.6187 H   0  0  0  0  0  0  0  0  0  0  0  0
  -11.4017   15.6317   74.7503 H   0  0  0  0  0  0  0  0  0  0  0  0
  -11.8244   14.5942   67.0648 H   0  0  0  0  0  0  0  0  0  0  0  0
  -13.0006   13.1722   65.0428 H   0  0  0  0  0  0  0  0  0  0  0  0
  -11.1299   13.9282   63.5929 H   0  0  0  0  0  0  0  0  0  0  0  0
  -10.0685   14.1679   65.0778 H   0  0  0  0  0  0  0  0  0  0  0  0
  -10.3216   11.6013   65.5896 H   0  0  0  0  0  0  0  0  0  0  0  0
  -11.4202   11.4979   64.1112 H   0  0  0  0  0  0  0  0  0  0  0  0
  1  2  1  0  0  0  0
  2  3  1  0  0  0  0
  3  4  1  0  0  0  0
  4  5  1  0  0  0  0
  5  6  2  0  0  0  0
  6  7  1  0  0  0  0
  6  8  1  0  0  0  0
  8  9  1  0  0  0  0
  2 10  1  0  0  0  0
 10 11  2  0  0  0  0
 10 12  1  0  0  0  0
 12 13  1  0  0  0  0
 13 14  1  0  0  0  0
 14 15  1  0  0  0  0
  4  9  2  0  0  0  0
 15 13  1  0  0  0  0
  1 16  1  0  0  0  0
  1 17  1  0  0  0  0
  1 18  1  0  0  0  0
  3 19  1  0  0  0  0
  3 20  1  0  0  0  0
  5 21  1  0  0  0  0
  7 22  1  0  0  0  0
  7 23  1  0  0  0  0
  7 24  1  0  0  0  0
 12 25  1  0  0  0  0
 13 26  1  0  0  0  0
 14 27  1  0  0  0  0
 14 28  1  0  0  0  0
 15 29  1  0  0  0  0
 15 30  1  0  0  0  0
M  END
> <Gold.Version>
2022.1.0

> <Gold.Id.Protein>
6LU7|6LU7_protein|mol2

> <Gold.PLP.Fitness>
44.1931

> <Gold.PLP.PLP>
-42.0859

> <Gold.PLP.part.hbond>
-1.0000

> <Gold.PLP.part.metal>
0.0000

> <Gold.PLP.part.buried>
-7.7539

> <Gold.PLP.part.nonpolar>
-34.4827

> <Gold.PLP.part.repulsive>
0.3656

> <Gold.PLP.ligand.clash>
0.0000

> <Gold.PLP.ligand.torsion>
0.5003

> <Gold.PLP.Chemscore.Hbond>
1.0000

> <Gold.PLP.Chemscore.CHOScore>
0.0000

> <Gold.PLP.Chemscore.Metal>
0.0000

> <Gold.Chemscore.Hbonds>
donor molecule, donor type, donor heavy atom, donor atom, acceptor molecule, acceptor atom, score
      P1  H  1281  4132       L1    11  1.00

> <Gold.PLP.Chemscore.Internal.Correction>
0.1079

> <Gold.Protein.RotatedTorsions>
[ 3973 1471 1470 1467 ] final -156.45 input   60.00 | X-H torsion
[ 3372  414  413  411 ] final  148.10 input   60.00 | X-H torsion
[ 4268 1114 1113 1110 ] final   27.80 input   59.99 | X-H torsion
[ 4409  924  923  921 ] final -107.95 input   59.99 | X-H torsion
[ 4183 1244 1243 1241 ] final  -56.89 input   59.99 | X-H torsion
[ 3800  178  177  174 ] final  115.87 input   60.00 | X-H torsion
[ 3793  171  170  167 ] final   26.07 input   60.00 | X-H torsion
[ 3576  185  184  181 ] final  114.81 input   60.00 | X-H torsion
[ 3523  346  345  342 ] final   92.43 input   60.01 | X-H torsion
[ 3515  339  338  335 ] final  -59.35 input   60.00 | X-H torsion
[ 3663  154  153  150 ] final  -63.13 input   60.00 | X-H torsion
[ 4280 1130 1129 1126 ] final -140.30 input   60.00 | X-H torsion

> <Gold.Protein.ActiveResidues>
 VAL20   THR21   CYS22   GLY23   THR24   THR25   THR26   LEU27   ASN28   PRO39  
 ARG40   HIS41   VAL42   CYS44   THR45   SER46   ASP48   MET49   LEU50   PRO52  
 TYR54   TYR118  ASN119  ILE136  GLY138  SER139  PHE140  LEU141  ASN142  GLY143 
 SER144  CYS145  GLY146  SER147  TYR161  HIS163  HIS164  MET165  GLU166  LEU167 
 PRO168  THR169  GLY170  VAL171  HIS172  ALA173  PHE181  PHE185  VAL186  ASP187 
 ARG188  GLN189  THR190  ALA191  GLN192  ALA193 

> <Gold.Protein.RotatedAtoms>
  -14.6552   17.0171   76.3577 H   0  0  0  0  0  0  0  0  0  0  0  0  # atno 3372 bound_to 414 
   -3.2104   20.4485   75.1038 H   0  0  0  0  0  0  0  0  0  0  0  0  # atno 3515 bound_to 339 
   -2.3496   18.4171   73.1823 H   0  0  0  0  0  0  0  0  0  0  0  0  # atno 3523 bound_to 346 
   -7.7098   26.8308   63.6559 H   0  0  0  0  0  0  0  0  0  0  0  0  # atno 3576 bound_to 185 
   -7.5508   28.2127   65.5260 H   0  0  0  0  0  0  0  0  0  0  0  0  # atno 3663 bound_to 154 
   -3.5523   24.2090   71.9817 H   0  0  0  0  0  0  0  0  0  0  0  0  # atno 3793 bound_to 171 
   -7.1845   23.8489   72.4705 H   0  0  0  0  0  0  0  0  0  0  0  0  # atno 3800 bound_to 178 
  -15.5129    8.6033   78.5103 H   0  0  0  0  0  0  0  0  0  0  0  0  # atno 3973 bound_to 1471
  -20.5626   13.4857   64.6306 H   0  0  0  0  0  0  0  0  0  0  0  0  # atno 4183 bound_to 1244
  -13.6415   16.4478   62.0212 H   0  0  0  0  0  0  0  0  0  0  0  0  # atno 4268 bound_to 1114
  -16.1849   18.9403   58.0824 H   0  0  0  0  0  0  0  0  0  0  0  0  # atno 4280 bound_to 1130
  -11.8943   15.3585   57.8532 H   0  0  0  0  0  0  0  0  0  0  0  0  # atno 4409 bound_to 924 
  -15.5534    7.2999   77.5369 LP  0  0  0  0  0  0  0  0  0  0  0  0  # atno 4696 bound_to 1471
  -14.9668    8.7192   76.9818 LP  0  0  0  0  0  0  0  0  0  0  0  0  # atno 4697 bound_to 1471
  -13.9719   18.2260   75.5093 LP  0  0  0  0  0  0  0  0  0  0  0  0  # atno 4731 bound_to 414 
  -15.4693   17.6999   75.1252 LP  0  0  0  0  0  0  0  0  0  0  0  0  # atno 4732 bound_to 414 
  -12.3977   15.5305   61.5120 LP  0  0  0  0  0  0  0  0  0  0  0  0  # atno 4733 bound_to 1114
  -13.8729   15.3610   60.8324 LP  0  0  0  0  0  0  0  0  0  0  0  0  # atno 4734 bound_to 1114
  -10.4072   14.9005   57.3773 LP  0  0  0  0  0  0  0  0  0  0  0  0  # atno 4763 bound_to 924 
  -11.5588   15.2264   56.2664 LP  0  0  0  0  0  0  0  0  0  0  0  0  # atno 4764 bound_to 924 
  -19.8868   13.5958   63.1544 LP  0  0  0  0  0  0  0  0  0  0  0  0  # atno 4771 bound_to 1244
  -20.9164   12.3750   63.4953 LP  0  0  0  0  0  0  0  0  0  0  0  0  # atno 4772 bound_to 1244
   -6.0583   23.2377   71.4674 LP  0  0  0  0  0  0  0  0  0  0  0  0  # atno 4775 bound_to 178 
   -7.3706   22.3503   71.8640 LP  0  0  0  0  0  0  0  0  0  0  0  0  # atno 4776 bound_to 178 
   -2.3000   24.8851   72.7707 LP  0  0  0  0  0  0  0  0  0  0  0  0  # atno 4779 bound_to 171 
   -2.1028   23.4695   71.9810 LP  0  0  0  0  0  0  0  0  0  0  0  0  # atno 4780 bound_to 171 
   -8.8084   25.6523   63.8839 LP  0  0  0  0  0  0  0  0  0  0  0  0  # atno 4783 bound_to 185 
   -7.4350   25.3432   63.0563 LP  0  0  0  0  0  0  0  0  0  0  0  0  # atno 4784 bound_to 185 
   -3.6553   17.5418   72.7617 LP  0  0  0  0  0  0  0  0  0  0  0  0  # atno 4785 bound_to 346 
   -2.1615   16.8924   72.6457 LP  0  0  0  0  0  0  0  0  0  0  0  0  # atno 4786 bound_to 346 
   -2.6819   21.9186   75.5592 LP  0  0  0  0  0  0  0  0  0  0  0  0  # atno 4787 bound_to 339 
   -3.5755   21.7532   74.2025 LP  0  0  0  0  0  0  0  0  0  0  0  0  # atno 4788 bound_to 339 
   -6.8755   29.6272   65.0885 LP  0  0  0  0  0  0  0  0  0  0  0  0  # atno 4797 bound_to 154 
   -8.5004   29.4649   65.1034 LP  0  0  0  0  0  0  0  0  0  0  0  0  # atno 4798 bound_to 154 

$$$$
