unknown|prepared_Mpro-x0540|sdf|1|dock4
  -GOLD-   5 72214353D 1   1.00000     0.00000

 39 40  0  0  0  0  0  0  0  0  1 V2000
  -10.4234   14.3759   68.7038 O   0  0  0  0  0  0  0  0  0  0  0  0
  -11.1099   15.4117   68.7067 C   0  0  0  0  0  0  0  0  0  0  0  0
  -11.1304   16.3295   67.6427 N   0  0  0  0  0  0  0  0  0  0  0  0
  -10.3319   16.1110   66.4759 C   0  0  0  0  0  0  0  0  0  0  0  0
  -11.2090   15.9252   65.2862 C   0  0  0  0  0  0  0  0  0  0  0  0
  -11.5188   14.4914   65.0243 C   0  0  0  0  0  0  0  0  0  0  0  0
  -11.6106   13.9662   63.7564 C   0  0  0  0  0  0  0  0  0  0  0  0
  -11.9058   12.6085   63.6078 C   0  0  0  0  0  0  0  0  0  0  0  0
  -12.0985   11.8197   64.6662 N   0  0  0  0  0  0  0  0  0  0  0  0
  -12.0171   12.2969   65.9228 C   0  0  0  0  0  0  0  0  0  0  0  0
  -11.7232   13.6504   66.0954 C   0  0  0  0  0  0  0  0  0  0  0  0
  -11.9072   15.6393   69.8808 N   0  0  0  0  0  0  0  0  0  0  0  0
  -11.9030   14.7105   70.9878 C   0  0  0  0  0  0  0  0  0  0  0  0
  -13.2773   14.1465   71.1994 C   0  0  0  0  0  0  0  0  0  0  0  0
  -14.1877   15.2841   71.5554 C   0  0  0  0  0  0  0  0  0  0  0  0
  -13.7775   15.8496   72.8812 C   0  0  0  0  0  0  0  0  0  0  0  0
  -12.4096   15.5081   73.3208 C   0  0  0  0  0  0  0  0  0  0  0  0
  -11.3932   15.3500   72.2398 C   0  0  0  0  0  0  0  0  0  0  0  0
  -11.7336   17.1699   67.7137 H   0  0  0  0  0  0  0  0  0  0  0  0
   -9.5830   16.9314   66.3151 H   0  0  0  0  0  0  0  0  0  0  0  0
   -9.7495   15.1637   66.6228 H   0  0  0  0  0  0  0  0  0  0  0  0
  -10.7810   16.3653   64.3847 H   0  0  0  0  0  0  0  0  0  0  0  0
  -12.1726   16.4677   65.5018 H   0  0  0  0  0  0  0  0  0  0  0  0
  -11.4553   14.6038   62.9224 H   0  0  0  0  0  0  0  0  0  0  0  0
  -11.9794   12.1891   62.6092 H   0  0  0  0  0  0  0  0  0  0  0  0
  -12.1796   11.6258   66.7475 H   0  0  0  0  0  0  0  0  0  0  0  0
  -11.6669   13.9930   67.1155 H   0  0  0  0  0  0  0  0  0  0  0  0
  -12.4964   16.5097   69.9125 H   0  0  0  0  0  0  0  0  0  0  0  0
  -11.2554   13.8349   70.6748 H   0  0  0  0  0  0  0  0  0  0  0  0
  -13.6174   13.5945   70.2998 H   0  0  0  0  0  0  0  0  0  0  0  0
  -13.2779   13.4404   72.0650 H   0  0  0  0  0  0  0  0  0  0  0  0
  -14.2034   16.0205   70.7421 H   0  0  0  0  0  0  0  0  0  0  0  0
  -15.2502   14.8894   71.5967 H   0  0  0  0  0  0  0  0  0  0  0  0
  -13.9319   16.9658   72.8122 H   0  0  0  0  0  0  0  0  0  0  0  0
  -14.5155   15.5081   73.6369 H   0  0  0  0  0  0  0  0  0  0  0  0
  -12.4063   14.5821   73.9663 H   0  0  0  0  0  0  0  0  0  0  0  0
  -12.0468   16.3180   73.9995 H   0  0  0  0  0  0  0  0  0  0  0  0
  -10.9250   16.3189   71.9655 H   0  0  0  0  0  0  0  0  0  0  0  0
  -10.5740   14.7132   72.6346 H   0  0  0  0  0  0  0  0  0  0  0  0
  1  2  2  0  0  0  0
  2  3  1  0  0  0  0
  3  4  1  0  0  0  0
  4  5  1  0  0  0  0
  5  6  1  0  0  0  0
  6  7  2  0  0  0  0
  7  8  1  0  0  0  0
  8  9  2  0  0  0  0
  9 10  1  0  0  0  0
 10 11  2  0  0  0  0
  2 12  1  0  0  0  0
 12 13  1  0  0  0  0
 13 14  1  0  0  0  0
 14 15  1  0  0  0  0
 15 16  1  0  0  0  0
 16 17  1  0  0  0  0
 17 18  1  0  0  0  0
  6 11  1  0  0  0  0
 18 13  1  0  0  0  0
  3 19  1  0  0  0  0
  4 20  1  0  0  0  0
  4 21  1  0  0  0  0
  5 22  1  0  0  0  0
  5 23  1  0  0  0  0
  7 24  1  0  0  0  0
  8 25  1  0  0  0  0
 10 26  1  0  0  0  0
 11 27  1  0  0  0  0
 12 28  1  0  0  0  0
 13 29  1  0  0  0  0
 14 30  1  0  0  0  0
 14 31  1  0  0  0  0
 15 32  1  0  0  0  0
 15 33  1  0  0  0  0
 16 34  1  0  0  0  0
 16 35  1  0  0  0  0
 17 36  1  0  0  0  0
 17 37  1  0  0  0  0
 18 38  1  0  0  0  0
 18 39  1  0  0  0  0
M  END
> <Gold.Version>
2022.1.0

> <Gold.Id.Protein>
6LU7|6LU7_protein|mol2

> <Gold.PLP.Fitness>
48.8948

> <Gold.PLP.PLP>
-47.2457

> <Gold.PLP.part.hbond>
0.0000

> <Gold.PLP.part.metal>
0.0000

> <Gold.PLP.part.buried>
-3.9671

> <Gold.PLP.part.nonpolar>
-44.8291

> <Gold.PLP.part.repulsive>
0.2553

> <Gold.PLP.ligand.clash>
0.0000

> <Gold.PLP.ligand.torsion>
0.5466

> <Gold.PLP.Chemscore.Hbond>
0.0000

> <Gold.PLP.Chemscore.CHOScore>
0.8986

> <Gold.PLP.Chemscore.Metal>
0.0000

> <Gold.Chemscore.Hbonds>
donor molecule, donor type, donor heavy atom, donor atom, acceptor molecule, acceptor atom, score
      L1  C     8    25       P1  1081  0.90

> <Gold.PLP.Chemscore.Internal.Correction>
0.0465

> <Gold.Protein.RotatedTorsions>
[ 3973 1471 1470 1467 ] final   25.25 input   60.00 | X-H torsion
[ 3372  414  413  411 ] final -146.69 input   60.00 | X-H torsion
[ 4268 1114 1113 1110 ] final   61.94 input   59.99 | X-H torsion
[ 4409  924  923  921 ] final   78.25 input   59.99 | X-H torsion
[ 4183 1244 1243 1241 ] final -120.76 input   59.99 | X-H torsion
[ 3800  178  177  174 ] final   95.95 input   60.00 | X-H torsion
[ 3793  171  170  167 ] final  123.71 input   60.00 | X-H torsion
[ 3576  185  184  181 ] final   12.09 input   60.00 | X-H torsion
[ 3523  346  345  342 ] final   75.86 input   60.01 | X-H torsion
[ 3515  339  338  335 ] final  106.66 input   60.00 | X-H torsion
[ 3663  154  153  150 ] final   58.53 input   60.00 | X-H torsion
[ 4280 1130 1129 1126 ] final -154.75 input   60.00 | X-H torsion

> <Gold.Protein.ActiveResidues>
 VAL20   THR21   CYS22   GLY23   THR24   THR25   THR26   LEU27   ASN28   PRO39  
 ARG40   HIS41   VAL42   CYS44   THR45   SER46   ASP48   MET49   LEU50   PRO52  
 TYR54   TYR118  ASN119  ILE136  GLY138  SER139  PHE140  LEU141  ASN142  GLY143 
 SER144  CYS145  GLY146  SER147  TYR161  HIS163  HIS164  MET165  GLU166  LEU167 
 PRO168  THR169  GLY170  VAL171  HIS172  ALA173  PHE181  PHE185  VAL186  ASP187 
 ARG188  GLN189  THR190  ALA191  GLN192  ALA193 

> <Gold.Protein.RotatedAtoms>
  -15.4602   17.1092   75.7565 H   0  0  0  0  0  0  0  0  0  0  0  0  # atno 3372 bound_to 414 
   -3.2298   22.2442   74.6252 H   0  0  0  0  0  0  0  0  0  0  0  0  # atno 3515 bound_to 339 
   -2.6092   18.4901   73.1881 H   0  0  0  0  0  0  0  0  0  0  0  0  # atno 3523 bound_to 346 
   -8.8112   25.9213   63.9695 H   0  0  0  0  0  0  0  0  0  0  0  0  # atno 3576 bound_to 185 
   -8.4828   29.4865   65.0993 H   0  0  0  0  0  0  0  0  0  0  0  0  # atno 3663 bound_to 154 
   -2.4219   23.3816   71.8286 H   0  0  0  0  0  0  0  0  0  0  0  0  # atno 3793 bound_to 171 
   -6.9096   23.9803   72.3609 H   0  0  0  0  0  0  0  0  0  0  0  0  # atno 3800 bound_to 178 
  -15.1838    7.7888   76.8570 H   0  0  0  0  0  0  0  0  0  0  0  0  # atno 3973 bound_to 1471
  -19.9735   13.9284   63.9690 H   0  0  0  0  0  0  0  0  0  0  0  0  # atno 4183 bound_to 1244
  -14.0580   16.2787   61.7051 H   0  0  0  0  0  0  0  0  0  0  0  0  # atno 4268 bound_to 1114
  -16.0771   18.7782   58.2150 H   0  0  0  0  0  0  0  0  0  0  0  0  # atno 4280 bound_to 1130
  -10.6135   14.9498   56.5541 H   0  0  0  0  0  0  0  0  0  0  0  0  # atno 4409 bound_to 924 
  -15.1283    9.1189   77.7930 LP  0  0  0  0  0  0  0  0  0  0  0  0  # atno 4696 bound_to 1471
  -15.7234    7.7206   78.3907 LP  0  0  0  0  0  0  0  0  0  0  0  0  # atno 4697 bound_to 1471
  -13.9664   17.5280   76.2476 LP  0  0  0  0  0  0  0  0  0  0  0  0  # atno 4731 bound_to 414 
  -14.6641   18.3052   74.9924 LP  0  0  0  0  0  0  0  0  0  0  0  0  # atno 4732 bound_to 414 
  -12.4800   15.9267   61.8895 LP  0  0  0  0  0  0  0  0  0  0  0  0  # atno 4733 bound_to 1114
  -13.3711   15.1351   60.7733 LP  0  0  0  0  0  0  0  0  0  0  0  0  # atno 4734 bound_to 1114
  -12.1433   15.4129   56.8593 LP  0  0  0  0  0  0  0  0  0  0  0  0  # atno 4763 bound_to 924 
  -11.1127   15.1256   58.0929 LP  0  0  0  0  0  0  0  0  0  0  0  0  # atno 4764 bound_to 924 
  -20.3886   12.7715   62.9025 LP  0  0  0  0  0  0  0  0  0  0  0  0  # atno 4771 bound_to 1244
  -21.0079   12.7535   64.4134 LP  0  0  0  0  0  0  0  0  0  0  0  0  # atno 4772 bound_to 1244
   -6.1434   22.9367   71.3750 LP  0  0  0  0  0  0  0  0  0  0  0  0  # atno 4775 bound_to 178 
   -7.5624   22.5190   72.0667 LP  0  0  0  0  0  0  0  0  0  0  0  0  # atno 4776 bound_to 178 
   -3.5345   24.5174   72.1749 LP  0  0  0  0  0  0  0  0  0  0  0  0  # atno 4779 bound_to 171 
   -2.0068   24.6704   72.7310 LP  0  0  0  0  0  0  0  0  0  0  0  0  # atno 4780 bound_to 171 
   -7.6484   25.1671   63.1171 LP  0  0  0  0  0  0  0  0  0  0  0  0  # atno 4783 bound_to 185 
   -7.4858   26.7444   63.5073 LP  0  0  0  0  0  0  0  0  0  0  0  0  # atno 4784 bound_to 185 
   -3.5861   17.2929   72.6775 LP  0  0  0  0  0  0  0  0  0  0  0  0  # atno 4785 bound_to 346 
   -1.9694   17.0677   72.7239 LP  0  0  0  0  0  0  0  0  0  0  0  0  # atno 4786 bound_to 346 
   -3.5637   20.6569   74.4946 LP  0  0  0  0  0  0  0  0  0  0  0  0  # atno 4787 bound_to 339 
   -2.6743   21.2066   75.7490 LP  0  0  0  0  0  0  0  0  0  0  0  0  # atno 4788 bound_to 339 
   -7.5774   28.2035   65.5260 LP  0  0  0  0  0  0  0  0  0  0  0  0  # atno 4797 bound_to 154 
   -6.8599   29.6058   65.0956 LP  0  0  0  0  0  0  0  0  0  0  0  0  # atno 4798 bound_to 154 

$$$$
