unknown|prepared_Mpro-x1093|sdf|1|dock2
  -GOLD-   5 72214353D 1   1.00000     0.00000

 37 39  0  0  0  0  0  0  0  0  1 V2000
  -12.0484   15.6385   73.8130 C   0  0  0  0  0  0  0  0  0  0  0  0
  -12.2395   15.0322   72.5385 N   0  0  0  0  0  0  0  0  0  0  0  0
  -13.4666   14.3464   72.3357 C   0  0  0  0  0  0  0  0  0  0  0  0
  -13.2326   13.2112   71.3106 C   0  0  0  0  0  0  0  0  0  0  0  0
  -12.4277   13.7806   70.2183 N   0  0  0  0  0  0  0  0  0  0  0  0
  -12.3000   15.2167   70.1466 C   0  0  0  0  0  0  0  0  0  0  0  0
  -11.6445   15.6744   71.4281 C   0  0  0  0  0  0  0  0  0  0  0  0
  -11.8176   12.9230   69.3007 C   0  0  0  0  0  0  0  0  0  0  0  0
  -11.9619   11.6761   69.4226 O   0  0  0  0  0  0  0  0  0  0  0  0
  -11.0093   13.4703   68.1942 C   0  0  0  0  0  0  0  0  0  0  0  0
  -11.7085   13.3879   66.8877 C   0  0  0  0  0  0  0  0  0  0  0  0
  -12.8172   14.0888   66.4512 C   0  0  0  0  0  0  0  0  0  0  0  0
  -13.1576   13.7388   65.2084 N   0  0  0  0  0  0  0  0  0  0  0  0
  -12.2614   12.7988   64.8283 C   0  0  0  0  0  0  0  0  0  0  0  0
  -12.1790   12.1339   63.6583 N   0  0  0  0  0  0  0  0  0  0  0  0
  -11.2032   11.2223   63.4629 C   0  0  0  0  0  0  0  0  0  0  0  0
  -10.2736   10.9521   64.4510 C   0  0  0  0  0  0  0  0  0  0  0  0
  -10.3640   11.6377   65.6494 C   0  0  0  0  0  0  0  0  0  0  0  0
  -11.3582   12.5638   65.8425 C   0  0  0  0  0  0  0  0  0  0  0  0
  -11.3986   15.0668   74.5035 H   0  0  0  0  0  0  0  0  0  0  0  0
  -11.6206   16.6586   73.6476 H   0  0  0  0  0  0  0  0  0  0  0  0
  -13.0221   15.7921   74.3051 H   0  0  0  0  0  0  0  0  0  0  0  0
  -14.2143   15.0669   71.9390 H   0  0  0  0  0  0  0  0  0  0  0  0
  -13.8707   13.9282   73.2541 H   0  0  0  0  0  0  0  0  0  0  0  0
  -12.6538   12.4478   71.8313 H   0  0  0  0  0  0  0  0  0  0  0  0
  -14.2088   12.9043   70.9324 H   0  0  0  0  0  0  0  0  0  0  0  0
  -11.7602   15.5301   69.2431 H   0  0  0  0  0  0  0  0  0  0  0  0
  -13.3374   15.6612   70.1427 H   0  0  0  0  0  0  0  0  0  0  0  0
  -10.5525   15.4463   71.3086 H   0  0  0  0  0  0  0  0  0  0  0  0
  -11.7033   16.7781   71.5465 H   0  0  0  0  0  0  0  0  0  0  0  0
  -10.0245   12.9344   68.1431 H   0  0  0  0  0  0  0  0  0  0  0  0
  -10.7421   14.5309   68.4438 H   0  0  0  0  0  0  0  0  0  0  0  0
  -13.3103   14.8202   67.0833 H   0  0  0  0  0  0  0  0  0  0  0  0
  -13.9683   14.1265   64.6434 H   0  0  0  0  0  0  0  0  0  0  0  0
  -11.1319   10.6778   62.5134 H   0  0  0  0  0  0  0  0  0  0  0  0
   -9.4796   10.2151   64.3009 H   0  0  0  0  0  0  0  0  0  0  0  0
   -9.6369   11.4263   66.4219 H   0  0  0  0  0  0  0  0  0  0  0  0
  1  2  1  0  0  0  0
  2  3  1  0  0  0  0
  3  4  1  0  0  0  0
  4  5  1  0  0  0  0
  5  6  1  0  0  0  0
  6  7  1  0  0  0  0
  5  8  1  0  0  0  0
  8  9  2  0  0  0  0
  8 10  1  0  0  0  0
 10 11  1  0  0  0  0
 11 12  2  0  0  0  0
 12 13  1  0  0  0  0
 13 14  1  0  0  0  0
 14 15  2  0  0  0  0
 15 16  1  0  0  0  0
 16 17  2  0  0  0  0
 17 18  1  0  0  0  0
 18 19  2  0  0  0  0
  7  2  1  0  0  0  0
 19 11  1  0  0  0  0
 19 14  1  0  0  0  0
  1 20  1  0  0  0  0
  1 21  1  0  0  0  0
  1 22  1  0  0  0  0
  3 23  1  0  0  0  0
  3 24  1  0  0  0  0
  4 25  1  0  0  0  0
  4 26  1  0  0  0  0
  6 27  1  0  0  0  0
  6 28  1  0  0  0  0
  7 29  1  0  0  0  0
  7 30  1  0  0  0  0
 10 31  1  0  0  0  0
 10 32  1  0  0  0  0
 12 33  1  0  0  0  0
 13 34  1  0  0  0  0
 16 35  1  0  0  0  0
 17 36  1  0  0  0  0
 18 37  1  0  0  0  0
M  END
> <Gold.Version>
2022.1.0

> <Gold.Id.Protein>
6LU7|6LU7_protein|mol2

> <Gold.PLP.Fitness>
61.0538

> <Gold.PLP.PLP>
-50.6523

> <Gold.PLP.part.hbond>
-1.0000

> <Gold.PLP.part.metal>
0.0000

> <Gold.PLP.part.buried>
-7.4618

> <Gold.PLP.part.nonpolar>
-44.0959

> <Gold.PLP.part.repulsive>
0.5213

> <Gold.PLP.ligand.clash>
0.0000

> <Gold.PLP.ligand.torsion>
0.2569

> <Gold.PLP.Chemscore.Hbond>
0.9920

> <Gold.PLP.Chemscore.CHOScore>
2.6462

> <Gold.PLP.Chemscore.Metal>
0.0000

> <Gold.Chemscore.Hbonds>
donor molecule, donor type, donor heavy atom, donor atom, acceptor molecule, acceptor atom, score
      L1  H    13    34       P1  1262  0.99
      L1  C    12    33       P1  1266  1.00
      L1  C    16    35       P1  1289  0.68
      L1  C    16    35       P1  1081  0.97

> <Gold.PLP.Chemscore.Internal.Correction>
0.0006

> <Gold.Protein.RotatedTorsions>
[ 3973 1471 1470 1467 ] final  164.07 input   60.00 | X-H torsion
[ 3372  414  413  411 ] final -170.63 input   60.00 | X-H torsion
[ 4268 1114 1113 1110 ] final -142.58 input   59.99 | X-H torsion
[ 4409  924  923  921 ] final  157.35 input   59.99 | X-H torsion
[ 4183 1244 1243 1241 ] final  101.49 input   59.99 | X-H torsion
[ 3800  178  177  174 ] final   67.66 input   60.00 | X-H torsion
[ 3793  171  170  167 ] final -154.61 input   60.00 | X-H torsion
[ 3576  185  184  181 ] final  -55.99 input   60.00 | X-H torsion
[ 3523  346  345  342 ] final -107.32 input   60.01 | X-H torsion
[ 3515  339  338  335 ] final   57.04 input   60.00 | X-H torsion
[ 3663  154  153  150 ] final  -29.28 input   60.00 | X-H torsion
[ 4280 1130 1129 1126 ] final  125.25 input   60.00 | X-H torsion

> <Gold.Protein.ActiveResidues>
 VAL20   THR21   CYS22   GLY23   THR24   THR25   THR26   LEU27   ASN28   PRO39  
 ARG40   HIS41   VAL42   CYS44   THR45   SER46   ASP48   MET49   LEU50   PRO52  
 TYR54   TYR118  ASN119  ILE136  GLY138  SER139  PHE140  LEU141  ASN142  GLY143 
 SER144  CYS145  GLY146  SER147  TYR161  HIS163  HIS164  MET165  GLU166  LEU167 
 PRO168  THR169  GLY170  VAL171  HIS172  ALA173  PHE181  PHE185  VAL186  ASP187 
 ARG188  GLN189  THR190  ALA191  GLN192  ALA193 

> <Gold.Protein.RotatedAtoms>
  -15.2324   16.9747   76.0408 H   0  0  0  0  0  0  0  0  0  0  0  0  # atno 3372 bound_to 414 
   -3.5927   21.6969   74.1940 H   0  0  0  0  0  0  0  0  0  0  0  0  # atno 3515 bound_to 339 
   -2.7819   16.7409   72.5447 H   0  0  0  0  0  0  0  0  0  0  0  0  # atno 3523 bound_to 346 
   -8.3787   25.0966   63.4889 H   0  0  0  0  0  0  0  0  0  0  0  0  # atno 3576 bound_to 185 
   -8.0852   28.3113   65.4825 H   0  0  0  0  0  0  0  0  0  0  0  0  # atno 3663 bound_to 154 
   -1.7534   24.1587   72.4981 H   0  0  0  0  0  0  0  0  0  0  0  0  # atno 3793 bound_to 171 
   -6.5195   23.9943   72.1219 H   0  0  0  0  0  0  0  0  0  0  0  0  # atno 3800 bound_to 178 
  -15.6881    7.9957   78.5229 H   0  0  0  0  0  0  0  0  0  0  0  0  # atno 3973 bound_to 1471
  -20.5758   12.5874   63.0258 H   0  0  0  0  0  0  0  0  0  0  0  0  # atno 4183 bound_to 1244
  -12.8309   15.1426   60.9628 H   0  0  0  0  0  0  0  0  0  0  0  0  # atno 4268 bound_to 1114
  -15.5559   18.8238   59.2988 H   0  0  0  0  0  0  0  0  0  0  0  0  # atno 4280 bound_to 1130
  -10.5800   14.9615   57.7457 H   0  0  0  0  0  0  0  0  0  0  0  0  # atno 4409 bound_to 924 
  -15.3042    7.5486   77.0061 LP  0  0  0  0  0  0  0  0  0  0  0  0  # atno 4696 bound_to 1471
  -15.0396    9.0825   77.4999 LP  0  0  0  0  0  0  0  0  0  0  0  0  # atno 4697 bound_to 1471
  -13.8418   17.8196   76.0187 LP  0  0  0  0  0  0  0  0  0  0  0  0  # atno 4731 bound_to 414 
  -15.0181   18.1491   74.9350 LP  0  0  0  0  0  0  0  0  0  0  0  0  # atno 4732 bound_to 414 
  -14.2216   15.9226   61.2878 LP  0  0  0  0  0  0  0  0  0  0  0  0  # atno 4733 bound_to 1114
  -12.8653   16.2834   62.1226 LP  0  0  0  0  0  0  0  0  0  0  0  0  # atno 4734 bound_to 1114
  -11.1649   15.1074   56.2342 LP  0  0  0  0  0  0  0  0  0  0  0  0  # atno 4763 bound_to 924 
  -12.1248   15.4194   57.5179 LP  0  0  0  0  0  0  0  0  0  0  0  0  # atno 4764 bound_to 924 
  -20.9075   12.9769   64.5706 LP  0  0  0  0  0  0  0  0  0  0  0  0  # atno 4771 bound_to 1244
  -19.8824   13.8985   63.6952 LP  0  0  0  0  0  0  0  0  0  0  0  0  # atno 4772 bound_to 1244
   -6.4093   22.5605   71.3602 LP  0  0  0  0  0  0  0  0  0  0  0  0  # atno 4775 bound_to 178 
   -7.6893   22.8810   72.3222 LP  0  0  0  0  0  0  0  0  0  0  0  0  # atno 4776 bound_to 178 
   -3.0180   23.4950   71.7183 LP  0  0  0  0  0  0  0  0  0  0  0  0  # atno 4779 bound_to 171 
   -3.1967   24.9102   72.5133 LP  0  0  0  0  0  0  0  0  0  0  0  0  # atno 4780 bound_to 171 
   -7.1451   26.0948   63.1287 LP  0  0  0  0  0  0  0  0  0  0  0  0  # atno 4783 bound_to 185 
   -8.4247   26.6473   63.9797 LP  0  0  0  0  0  0  0  0  0  0  0  0  # atno 4784 bound_to 185 
   -1.8782   17.9909   73.0635 LP  0  0  0  0  0  0  0  0  0  0  0  0  # atno 4785 bound_to 346 
   -3.5033   18.1313   72.9859 LP  0  0  0  0  0  0  0  0  0  0  0  0  # atno 4786 bound_to 346 
   -3.1763   20.4495   75.1525 LP  0  0  0  0  0  0  0  0  0  0  0  0  # atno 4787 bound_to 339 
   -2.6962   21.9652   75.5253 LP  0  0  0  0  0  0  0  0  0  0  0  0  # atno 4788 bound_to 339 
   -6.6999   29.1328   65.2499 LP  0  0  0  0  0  0  0  0  0  0  0  0  # atno 4797 bound_to 154 
   -8.1379   29.8600   64.9858 LP  0  0  0  0  0  0  0  0  0  0  0  0  # atno 4798 bound_to 154 

$$$$
