unknown|prepared_Mpro-x0104|sdf|1|dock2
  -GOLD-   5 72214353D 1   1.00000     0.00000

 29 30  0  0  0  0  0  0  0  0  1 V2000
   -8.0526   20.4160   67.5999 C   0  0  0  0  0  0  0  0  0  0  0  0
   -9.1755   19.5239   67.8884 C   0  0  0  0  0  0  0  0  0  0  0  0
  -10.1858   20.0009   68.4747 O   0  0  0  0  0  0  0  0  0  0  0  0
   -9.2218   18.1463   67.5580 N   0  0  0  0  0  0  0  0  0  0  0  0
  -10.3315   17.3028   67.8529 C   0  0  0  0  0  0  0  0  0  0  0  0
  -10.5622   17.0738   69.3136 C   0  0  0  0  0  0  0  0  0  0  0  0
  -11.3897   15.9003   69.6115 C   0  0  0  0  0  0  0  0  0  0  0  0
  -11.8310   14.8974   68.7804 C   0  0  0  0  0  0  0  0  0  0  0  0
  -12.5718   14.0060   69.4647 N   0  0  0  0  0  0  0  0  0  0  0  0
  -12.6091   14.4341   70.7406 C   0  0  0  0  0  0  0  0  0  0  0  0
  -13.2376   13.8723   71.8317 C   0  0  0  0  0  0  0  0  0  0  0  0
  -13.1396   14.4963   73.0691 C   0  0  0  0  0  0  0  0  0  0  0  0
  -12.4156   15.6809   73.2235 C   0  0  0  0  0  0  0  0  0  0  0  0
  -12.3001   16.3113   74.4061 F   0  0  0  0  0  0  0  0  0  0  0  0
  -11.8064   16.2043   72.1101 C   0  0  0  0  0  0  0  0  0  0  0  0
  -11.8861   15.6057   70.8641 C   0  0  0  0  0  0  0  0  0  0  0  0
   -7.0631   19.9000   67.5826 H   0  0  0  0  0  0  0  0  0  0  0  0
   -7.9857   21.1601   68.4271 H   0  0  0  0  0  0  0  0  0  0  0  0
   -8.1401   20.9409   66.6280 H   0  0  0  0  0  0  0  0  0  0  0  0
   -8.3914   17.7471   67.0743 H   0  0  0  0  0  0  0  0  0  0  0  0
  -11.2333   17.7299   67.3702 H   0  0  0  0  0  0  0  0  0  0  0  0
  -10.1992   16.2895   67.3805 H   0  0  0  0  0  0  0  0  0  0  0  0
  -10.9495   17.9842   69.8099 H   0  0  0  0  0  0  0  0  0  0  0  0
   -9.5499   16.8976   69.7827 H   0  0  0  0  0  0  0  0  0  0  0  0
  -11.6316   14.8057   67.7256 H   0  0  0  0  0  0  0  0  0  0  0  0
  -13.0187   13.1557   69.0568 H   0  0  0  0  0  0  0  0  0  0  0  0
  -13.8122   12.9487   71.7525 H   0  0  0  0  0  0  0  0  0  0  0  0
  -13.6281   14.0586   73.9141 H   0  0  0  0  0  0  0  0  0  0  0  0
  -11.2424   17.1312   72.2413 H   0  0  0  0  0  0  0  0  0  0  0  0
  1  2  1  0  0  0  0
  2  3  2  0  0  0  0
  2  4  1  0  0  0  0
  4  5  1  0  0  0  0
  5  6  1  0  0  0  0
  6  7  1  0  0  0  0
  7  8  2  0  0  0  0
  8  9  1  0  0  0  0
  9 10  1  0  0  0  0
 10 11  2  0  0  0  0
 11 12  1  0  0  0  0
 12 13  2  0  0  0  0
 13 14  1  0  0  0  0
 13 15  1  0  0  0  0
 15 16  2  0  0  0  0
 16  7  1  0  0  0  0
 10 16  1  0  0  0  0
  1 17  1  0  0  0  0
  1 18  1  0  0  0  0
  1 19  1  0  0  0  0
  4 20  1  0  0  0  0
  5 21  1  0  0  0  0
  5 22  1  0  0  0  0
  6 23  1  0  0  0  0
  6 24  1  0  0  0  0
  8 25  1  0  0  0  0
  9 26  1  0  0  0  0
 11 27  1  0  0  0  0
 12 28  1  0  0  0  0
 15 29  1  0  0  0  0
M  END
> <Gold.Version>
2022.1.0

> <Gold.Id.Protein>
6LU7|6LU7_protein|mol2

> <Gold.PLP.Fitness>
48.4606

> <Gold.PLP.PLP>
-48.8359

> <Gold.PLP.part.hbond>
-0.6927

> <Gold.PLP.part.metal>
0.0000

> <Gold.PLP.part.buried>
-5.8526

> <Gold.PLP.part.nonpolar>
-43.5904

> <Gold.PLP.part.repulsive>
0.1735

> <Gold.PLP.ligand.clash>
0.0000

> <Gold.PLP.ligand.torsion>
0.1915

> <Gold.PLP.Chemscore.Hbond>
0.0000

> <Gold.PLP.Chemscore.CHOScore>
0.0000

> <Gold.PLP.Chemscore.Metal>
0.0000

> <Gold.PLP.Chemscore.Internal.Correction>
0.0077

> <Gold.Protein.RotatedTorsions>
[ 3973 1471 1470 1467 ] final   84.81 input   60.00 | X-H torsion
[ 3372  414  413  411 ] final  122.65 input   60.00 | X-H torsion
[ 4268 1114 1113 1110 ] final -170.84 input   59.99 | X-H torsion
[ 4409  924  923  921 ] final   56.36 input   59.99 | X-H torsion
[ 4183 1244 1243 1241 ] final -119.27 input   59.99 | X-H torsion
[ 3800  178  177  174 ] final -100.62 input   60.00 | X-H torsion
[ 3793  171  170  167 ] final  -38.04 input   60.00 | X-H torsion
[ 3576  185  184  181 ] final -145.25 input   60.00 | X-H torsion
[ 3523  346  345  342 ] final   -4.40 input   60.01 | X-H torsion
[ 3515  339  338  335 ] final   57.48 input   60.00 | X-H torsion
[ 3663  154  153  150 ] final   78.40 input   60.00 | X-H torsion
[ 4280 1130 1129 1126 ] final  -35.82 input   60.00 | X-H torsion

> <Gold.Protein.ActiveResidues>
 VAL20   THR21   CYS22   GLY23   THR24   THR25   THR26   LEU27   ASN28   PRO39  
 ARG40   HIS41   VAL42   CYS44   THR45   SER46   ASP48   MET49   LEU50   PRO52  
 TYR54   TYR118  ASN119  ILE136  GLY138  SER139  PHE140  LEU141  ASN142  GLY143 
 SER144  CYS145  GLY146  SER147  TYR161  HIS163  HIS164  MET165  GLU166  LEU167 
 PRO168  THR169  GLY170  VAL171  HIS172  ALA173  PHE181  PHE185  VAL186  ASP187 
 ARG188  GLN189  THR190  ALA191  GLN192  ALA193 

> <Gold.Protein.RotatedAtoms>
  -14.2906   17.2079   76.3853 H   0  0  0  0  0  0  0  0  0  0  0  0  # atno 3372 bound_to 414 
   -3.5906   21.7035   74.1957 H   0  0  0  0  0  0  0  0  0  0  0  0  # atno 3515 bound_to 339 
   -3.6159   17.8932   72.8938 H   0  0  0  0  0  0  0  0  0  0  0  0  # atno 3523 bound_to 346 
   -7.2547   25.6162   63.0452 H   0  0  0  0  0  0  0  0  0  0  0  0  # atno 3576 bound_to 185 
   -8.2930   29.7367   65.0239 H   0  0  0  0  0  0  0  0  0  0  0  0  # atno 3663 bound_to 154 
   -3.1476   24.9276   72.5359 H   0  0  0  0  0  0  0  0  0  0  0  0  # atno 3793 bound_to 171 
   -7.0693   22.2817   71.6380 H   0  0  0  0  0  0  0  0  0  0  0  0  # atno 3800 bound_to 178 
  -15.5566    7.3045   77.5579 H   0  0  0  0  0  0  0  0  0  0  0  0  # atno 3973 bound_to 1471
  -19.9829   13.9278   63.9914 H   0  0  0  0  0  0  0  0  0  0  0  0  # atno 4183 bound_to 1244
  -13.2554   15.1209   60.7949 H   0  0  0  0  0  0  0  0  0  0  0  0  # atno 4268 bound_to 1114
  -16.3166   20.3354   58.5592 H   0  0  0  0  0  0  0  0  0  0  0  0  # atno 4280 bound_to 1130
  -10.8825   15.0267   56.3346 H   0  0  0  0  0  0  0  0  0  0  0  0  # atno 4409 bound_to 924 
  -14.9673    8.7026   76.9696 LP  0  0  0  0  0  0  0  0  0  0  0  0  # atno 4696 bound_to 1471
  -15.5088    8.6246   78.5082 LP  0  0  0  0  0  0  0  0  0  0  0  0  # atno 4697 bound_to 1471
  -14.2446   18.3406   75.2178 LP  0  0  0  0  0  0  0  0  0  0  0  0  # atno 4731 bound_to 414 
  -15.5637   17.3933   75.3889 LP  0  0  0  0  0  0  0  0  0  0  0  0  # atno 4732 bound_to 414 
  -14.1225   16.2192   61.6255 LP  0  0  0  0  0  0  0  0  0  0  0  0  # atno 4733 bound_to 1114
  -12.5368   16.0087   61.9539 LP  0  0  0  0  0  0  0  0  0  0  0  0  # atno 4734 bound_to 1114
  -12.1900   15.4334   57.2138 LP  0  0  0  0  0  0  0  0  0  0  0  0  # atno 4763 bound_to 924 
  -10.7950   15.0277   57.9595 LP  0  0  0  0  0  0  0  0  0  0  0  0  # atno 4764 bound_to 924 
  -20.3731   12.7893   62.8962 LP  0  0  0  0  0  0  0  0  0  0  0  0  # atno 4771 bound_to 1244
  -21.0140   12.7362   64.3972 LP  0  0  0  0  0  0  0  0  0  0  0  0  # atno 4772 bound_to 1244
   -7.4617   23.5901   72.5225 LP  0  0  0  0  0  0  0  0  0  0  0  0  # atno 4775 bound_to 178 
   -6.0832   23.5762   71.6472 LP  0  0  0  0  0  0  0  0  0  0  0  0  # atno 4776 bound_to 178 
   -1.7430   24.1085   72.4739 LP  0  0  0  0  0  0  0  0  0  0  0  0  # atno 4779 bound_to 171 
   -3.0674   23.5223   71.7196 LP  0  0  0  0  0  0  0  0  0  0  0  0  # atno 4780 bound_to 171 
   -7.9976   26.8447   63.8112 LP  0  0  0  0  0  0  0  0  0  0  0  0  # atno 4783 bound_to 185 
   -8.7042   25.3740   63.7440 LP  0  0  0  0  0  0  0  0  0  0  0  0  # atno 4784 bound_to 185 
   -2.5040   16.7507   72.5676 LP  0  0  0  0  0  0  0  0  0  0  0  0  # atno 4785 bound_to 346 
   -2.0376   18.2110   73.1303 LP  0  0  0  0  0  0  0  0  0  0  0  0  # atno 4786 bound_to 346 
   -3.1803   20.4484   75.1466 LP  0  0  0  0  0  0  0  0  0  0  0  0  # atno 4787 bound_to 339 
   -2.6943   21.9596   75.5296 LP  0  0  0  0  0  0  0  0  0  0  0  0  # atno 4788 bound_to 339 
   -7.9008   28.2338   65.5090 LP  0  0  0  0  0  0  0  0  0  0  0  0  # atno 4797 bound_to 154 
   -6.7277   29.3235   65.1886 LP  0  0  0  0  0  0  0  0  0  0  0  0  # atno 4798 bound_to 154 

$$$$
