unknown|prepared_Mpro-x1093|sdf|1|dock3
  -GOLD-   5 72214353D 1   1.00000     0.00000

 37 39  0  0  0  0  0  0  0  0  1 V2000
  -12.4009   15.9057   74.3435 C   0  0  0  0  0  0  0  0  0  0  0  0
  -12.5243   15.3203   73.0511 N   0  0  0  0  0  0  0  0  0  0  0  0
  -13.7900   14.7683   72.7190 C   0  0  0  0  0  0  0  0  0  0  0  0
  -13.5744   13.6122   71.7132 C   0  0  0  0  0  0  0  0  0  0  0  0
  -12.6066   14.0903   70.7133 N   0  0  0  0  0  0  0  0  0  0  0  0
  -12.3209   15.5046   70.6671 C   0  0  0  0  0  0  0  0  0  0  0  0
  -11.7546   15.8930   72.0124 C   0  0  0  0  0  0  0  0  0  0  0  0
  -12.0005   13.1707   69.8550 C   0  0  0  0  0  0  0  0  0  0  0  0
  -12.2878   11.9464   69.9510 O   0  0  0  0  0  0  0  0  0  0  0  0
  -11.0303   13.6264   68.8410 C   0  0  0  0  0  0  0  0  0  0  0  0
  -11.1495   12.8763   67.5660 C   0  0  0  0  0  0  0  0  0  0  0  0
  -10.8983   11.5396   67.3189 C   0  0  0  0  0  0  0  0  0  0  0  0
  -11.1190   11.2300   66.0389 N   0  0  0  0  0  0  0  0  0  0  0  0
  -11.5190   12.3771   65.4427 C   0  0  0  0  0  0  0  0  0  0  0  0
  -11.8607   12.5857   64.1553 N   0  0  0  0  0  0  0  0  0  0  0  0
  -12.2378   13.8145   63.7436 C   0  0  0  0  0  0  0  0  0  0  0  0
  -12.2815   14.8784   64.6266 C   0  0  0  0  0  0  0  0  0  0  0  0
  -11.9292   14.6575   65.9463 C   0  0  0  0  0  0  0  0  0  0  0  0
  -11.5468   13.4060   66.3594 C   0  0  0  0  0  0  0  0  0  0  0  0
  -11.8891   15.2698   75.0916 H   0  0  0  0  0  0  0  0  0  0  0  0
  -11.8528   16.8743   74.2312 H   0  0  0  0  0  0  0  0  0  0  0  0
  -13.3979   16.1631   74.7356 H   0  0  0  0  0  0  0  0  0  0  0  0
  -14.4129   15.5632   72.2545 H   0  0  0  0  0  0  0  0  0  0  0  0
  -14.3277   14.3974   73.5879 H   0  0  0  0  0  0  0  0  0  0  0  0
  -13.1358   12.7928   72.2835 H   0  0  0  0  0  0  0  0  0  0  0  0
  -14.5340   13.4099   71.2352 H   0  0  0  0  0  0  0  0  0  0  0  0
  -11.6618   15.7568   69.8257 H   0  0  0  0  0  0  0  0  0  0  0  0
  -13.2996   16.0568   70.5616 H   0  0  0  0  0  0  0  0  0  0  0  0
  -10.6864   15.5499   72.0024 H   0  0  0  0  0  0  0  0  0  0  0  0
  -11.7079   16.9970   72.1336 H   0  0  0  0  0  0  0  0  0  0  0  0
   -9.9879   13.5395   69.2478 H   0  0  0  0  0  0  0  0  0  0  0  0
  -11.1803   14.7263   68.6788 H   0  0  0  0  0  0  0  0  0  0  0  0
  -10.5640   10.8709   68.1055 H   0  0  0  0  0  0  0  0  0  0  0  0
  -11.0017   10.2746   65.5916 H   0  0  0  0  0  0  0  0  0  0  0  0
  -12.5160   13.9901   62.6973 H   0  0  0  0  0  0  0  0  0  0  0  0
  -12.5860   15.8772   64.3015 H   0  0  0  0  0  0  0  0  0  0  0  0
  -11.9635   15.4897   66.6366 H   0  0  0  0  0  0  0  0  0  0  0  0
  1  2  1  0  0  0  0
  2  3  1  0  0  0  0
  3  4  1  0  0  0  0
  4  5  1  0  0  0  0
  5  6  1  0  0  0  0
  6  7  1  0  0  0  0
  5  8  1  0  0  0  0
  8  9  2  0  0  0  0
  8 10  1  0  0  0  0
 10 11  1  0  0  0  0
 11 12  2  0  0  0  0
 12 13  1  0  0  0  0
 13 14  1  0  0  0  0
 14 15  2  0  0  0  0
 15 16  1  0  0  0  0
 16 17  2  0  0  0  0
 17 18  1  0  0  0  0
 18 19  2  0  0  0  0
  7  2  1  0  0  0  0
 19 11  1  0  0  0  0
 19 14  1  0  0  0  0
  1 20  1  0  0  0  0
  1 21  1  0  0  0  0
  1 22  1  0  0  0  0
  3 23  1  0  0  0  0
  3 24  1  0  0  0  0
  4 25  1  0  0  0  0
  4 26  1  0  0  0  0
  6 27  1  0  0  0  0
  6 28  1  0  0  0  0
  7 29  1  0  0  0  0
  7 30  1  0  0  0  0
 10 31  1  0  0  0  0
 10 32  1  0  0  0  0
 12 33  1  0  0  0  0
 13 34  1  0  0  0  0
 16 35  1  0  0  0  0
 17 36  1  0  0  0  0
 18 37  1  0  0  0  0
M  END
> <Gold.Version>
2022.1.0

> <Gold.Id.Protein>
6LU7|6LU7_protein|mol2

> <Gold.PLP.Fitness>
58.7365

> <Gold.PLP.PLP>
-54.9849

> <Gold.PLP.part.hbond>
0.0000

> <Gold.PLP.part.metal>
0.0000

> <Gold.PLP.part.buried>
-6.7198

> <Gold.PLP.part.nonpolar>
-50.4762

> <Gold.PLP.part.repulsive>
0.3738

> <Gold.PLP.ligand.clash>
0.0000

> <Gold.PLP.ligand.torsion>
0.3546

> <Gold.PLP.Chemscore.Hbond>
0.0000

> <Gold.PLP.Chemscore.CHOScore>
1.4867

> <Gold.PLP.Chemscore.Metal>
0.0000

> <Gold.Chemscore.Hbonds>
donor molecule, donor type, donor heavy atom, donor atom, acceptor molecule, acceptor atom, score
      L1  C    16    35       P1  1092  0.49
      L1  C    16    35       P1  1114  1.00

> <Gold.PLP.Chemscore.Internal.Correction>
0.0006

> <Gold.Protein.RotatedTorsions>
[ 3973 1471 1470 1467 ] final  162.01 input   60.00 | X-H torsion
[ 3372  414  413  411 ] final  172.83 input   60.00 | X-H torsion
[ 4268 1114 1113 1110 ] final   64.15 input   59.99 | X-H torsion
[ 4409  924  923  921 ] final -154.17 input   59.99 | X-H torsion
[ 4183 1244 1243 1241 ] final  -44.99 input   59.99 | X-H torsion
[ 3800  178  177  174 ] final -178.93 input   60.00 | X-H torsion
[ 3793  171  170  167 ] final  -36.45 input   60.00 | X-H torsion
[ 3576  185  184  181 ] final -175.90 input   60.00 | X-H torsion
[ 3523  346  345  342 ] final   81.16 input   60.01 | X-H torsion
[ 3515  339  338  335 ] final -142.05 input   60.00 | X-H torsion
[ 3663  154  153  150 ] final -146.43 input   60.00 | X-H torsion
[ 4280 1130 1129 1126 ] final  -57.45 input   60.00 | X-H torsion

> <Gold.Protein.ActiveResidues>
 VAL20   THR21   CYS22   GLY23   THR24   THR25   THR26   LEU27   ASN28   PRO39  
 ARG40   HIS41   VAL42   CYS44   THR45   SER46   ASP48   MET49   LEU50   PRO52  
 TYR54   TYR118  ASN119  ILE136  GLY138  SER139  PHE140  LEU141  ASN142  GLY143 
 SER144  CYS145  GLY146  SER147  TYR161  HIS163  HIS164  MET165  GLU166  LEU167 
 PRO168  THR169  GLY170  VAL171  HIS172  ALA173  PHE181  PHE185  VAL186  ASP187 
 ARG188  GLN189  THR190  ALA191  GLN192  ALA193 

> <Gold.Protein.RotatedAtoms>
  -15.0184   16.9487   76.2022 H   0  0  0  0  0  0  0  0  0  0  0  0  # atno 3372 bound_to 414 
   -2.6560   21.3482   75.7466 H   0  0  0  0  0  0  0  0  0  0  0  0  # atno 3515 bound_to 339 
   -2.5241   18.4744   73.1892 H   0  0  0  0  0  0  0  0  0  0  0  0  # atno 3523 bound_to 346 
   -7.1500   26.0918   63.1331 H   0  0  0  0  0  0  0  0  0  0  0  0  # atno 3576 bound_to 185 
   -6.7062   29.0889   65.2661 H   0  0  0  0  0  0  0  0  0  0  0  0  # atno 3663 bound_to 154 
   -3.1685   24.9180   72.5238 H   0  0  0  0  0  0  0  0  0  0  0  0  # atno 3793 bound_to 171 
   -7.6864   22.9801   72.3654 H   0  0  0  0  0  0  0  0  0  0  0  0  # atno 3800 bound_to 178 
  -15.6933    7.9643   78.5122 H   0  0  0  0  0  0  0  0  0  0  0  0  # atno 3973 bound_to 1471
  -20.6821   13.3342   64.6522 H   0  0  0  0  0  0  0  0  0  0  0  0  # atno 4183 bound_to 1244
  -14.0771   16.2608   61.6802 H   0  0  0  0  0  0  0  0  0  0  0  0  # atno 4268 bound_to 1114
  -16.4045   20.1436   58.2783 H   0  0  0  0  0  0  0  0  0  0  0  0  # atno 4280 bound_to 1130
  -11.2307   15.1636   58.1017 H   0  0  0  0  0  0  0  0  0  0  0  0  # atno 4409 bound_to 924 
  -15.2907    7.5715   76.9852 LP  0  0  0  0  0  0  0  0  0  0  0  0  # atno 4696 bound_to 1471
  -15.0478    9.0911   77.5316 LP  0  0  0  0  0  0  0  0  0  0  0  0  # atno 4697 bound_to 1471
  -13.8415   18.0064   75.8221 LP  0  0  0  0  0  0  0  0  0  0  0  0  # atno 4731 bound_to 414 
  -15.2338   17.9884   74.9690 LP  0  0  0  0  0  0  0  0  0  0  0  0  # atno 4732 bound_to 414 
  -12.4960   15.9521   61.9100 LP  0  0  0  0  0  0  0  0  0  0  0  0  # atno 4733 bound_to 1114
  -13.3358   15.1277   60.7778 LP  0  0  0  0  0  0  0  0  0  0  0  0  # atno 4734 bound_to 1114
  -10.5368   14.9262   56.6491 LP  0  0  0  0  0  0  0  0  0  0  0  0  # atno 4763 bound_to 924 
  -12.0975   15.3971   56.7444 LP  0  0  0  0  0  0  0  0  0  0  0  0  # atno 4764 bound_to 924 
  -19.8568   13.7187   63.3035 LP  0  0  0  0  0  0  0  0  0  0  0  0  # atno 4771 bound_to 1244
  -20.8261   12.4047   63.3244 LP  0  0  0  0  0  0  0  0  0  0  0  0  # atno 4772 bound_to 1244
   -6.4335   23.9726   72.0601 LP  0  0  0  0  0  0  0  0  0  0  0  0  # atno 4775 bound_to 178 
   -6.4900   22.4904   71.3771 LP  0  0  0  0  0  0  0  0  0  0  0  0  # atno 4776 bound_to 178 
   -1.7447   24.1311   72.4869 LP  0  0  0  0  0  0  0  0  0  0  0  0  # atno 4779 bound_to 171 
   -3.0446   23.5093   71.7187 LP  0  0  0  0  0  0  0  0  0  0  0  0  # atno 4780 bound_to 171 
   -8.4236   26.6482   63.9794 LP  0  0  0  0  0  0  0  0  0  0  0  0  # atno 4783 bound_to 185 
   -8.3837   25.0916   63.4873 LP  0  0  0  0  0  0  0  0  0  0  0  0  # atno 4784 bound_to 185 
   -3.6164   17.3706   72.7031 LP  0  0  0  0  0  0  0  0  0  0  0  0  # atno 4785 bound_to 346 
   -2.0247   17.0058   72.6973 LP  0  0  0  0  0  0  0  0  0  0  0  0  # atno 4786 bound_to 346 
   -3.3052   22.1919   74.5158 LP  0  0  0  0  0  0  0  0  0  0  0  0  # atno 4787 bound_to 339 
   -3.5106   20.5740   74.5985 LP  0  0  0  0  0  0  0  0  0  0  0  0  # atno 4788 bound_to 339 
   -8.0975   29.8828   64.9795 LP  0  0  0  0  0  0  0  0  0  0  0  0  # atno 4797 bound_to 154 
   -8.1290   28.3269   65.4742 LP  0  0  0  0  0  0  0  0  0  0  0  0  # atno 4798 bound_to 154 

$$$$
