unknown|prepared_Mpro-x0161|sdf|1|dock4
  -GOLD-   5 72214353D 1   1.00000     0.00000

 23 23  0  0  0  0  0  0  0  0  1 V2000
  -12.6348   14.9354   73.6214 C   0  0  0  0  0  0  0  0  0  0  0  0
  -11.9910   15.3774   72.4479 O   0  0  0  0  0  0  0  0  0  0  0  0
  -12.1880   14.8715   71.1968 C   0  0  0  0  0  0  0  0  0  0  0  0
  -12.8985   13.8418   71.0665 O   0  0  0  0  0  0  0  0  0  0  0  0
  -11.5814   15.5198   70.0335 C   0  0  0  0  0  0  0  0  0  0  0  0
  -11.7374   15.0499   68.7542 C   0  0  0  0  0  0  0  0  0  0  0  0
  -11.1744   15.6474   67.6529 C   0  0  0  0  0  0  0  0  0  0  0  0
  -10.4065   16.7854   67.8318 C   0  0  0  0  0  0  0  0  0  0  0  0
  -10.2262   17.2871   69.0948 C   0  0  0  0  0  0  0  0  0  0  0  0
  -10.8038   16.6664   70.1842 C   0  0  0  0  0  0  0  0  0  0  0  0
   -9.7049   17.5188   66.4017 S   0  0  0  0  0  0  0  0  0  0  0  0
   -9.9943   18.9928   66.4264 O   0  0  0  0  0  0  0  0  0  0  0  0
  -10.3320   16.8982   65.1877 O   0  0  0  0  0  0  0  0  0  0  0  0
   -7.9856   17.3235   66.3932 N   0  0  0  0  0  0  0  0  0  0  0  0
  -13.0889   15.7929   74.1640 H   0  0  0  0  0  0  0  0  0  0  0  0
  -11.8400   14.5414   74.2924 H   0  0  0  0  0  0  0  0  0  0  0  0
  -13.4186   14.1830   73.4236 H   0  0  0  0  0  0  0  0  0  0  0  0
  -12.3326   14.1666   68.6099 H   0  0  0  0  0  0  0  0  0  0  0  0
  -11.3533   15.2031   66.6784 H   0  0  0  0  0  0  0  0  0  0  0  0
   -9.6210   18.1769   69.1987 H   0  0  0  0  0  0  0  0  0  0  0  0
  -10.6596   17.0639   71.1751 H   0  0  0  0  0  0  0  0  0  0  0  0
   -7.6208   18.0201   65.6777 H   0  0  0  0  0  0  0  0  0  0  0  0
   -7.7768   16.3877   65.9695 H   0  0  0  0  0  0  0  0  0  0  0  0
  1  2  1  0  0  0  0
  2  3  1  0  0  0  0
  3  4  2  0  0  0  0
  3  5  1  0  0  0  0
  5  6  2  0  0  0  0
  6  7  1  0  0  0  0
  7  8  2  0  0  0  0
  8  9  1  0  0  0  0
  9 10  2  0  0  0  0
  8 11  1  0  0  0  0
 11 12  2  0  0  0  0
 11 13  2  0  0  0  0
 11 14  1  0  0  0  0
  5 10  1  0  0  0  0
  1 15  1  0  0  0  0
  1 16  1  0  0  0  0
  1 17  1  0  0  0  0
  6 18  1  0  0  0  0
  7 19  1  0  0  0  0
  9 20  1  0  0  0  0
 10 21  1  0  0  0  0
 14 22  1  0  0  0  0
 14 23  1  0  0  0  0
M  END
> <Gold.Version>
2022.1.0

> <Gold.Id.Protein>
6LU7|6LU7_protein|mol2

> <Gold.PLP.Fitness>
32.3329

> <Gold.PLP.PLP>
-29.4691

> <Gold.PLP.part.hbond>
-1.0000

> <Gold.PLP.part.metal>
0.0000

> <Gold.PLP.part.buried>
-7.0239

> <Gold.PLP.part.nonpolar>
-21.9788

> <Gold.PLP.part.repulsive>
0.2931

> <Gold.PLP.ligand.clash>
0.0000

> <Gold.PLP.ligand.torsion>
1.1634

> <Gold.PLP.Chemscore.Hbond>
1.0000

> <Gold.PLP.Chemscore.CHOScore>
0.0000

> <Gold.PLP.Chemscore.Metal>
0.0000

> <Gold.Chemscore.Hbonds>
donor molecule, donor type, donor heavy atom, donor atom, acceptor molecule, acceptor atom, score
      P1  H  1105  4261       L1    13  1.00

> <Gold.PLP.Chemscore.Internal.Correction>
2.1906

> <Gold.Protein.RotatedTorsions>
[ 3973 1471 1470 1467 ] final  -39.82 input   60.00 | X-H torsion
[ 3372  414  413  411 ] final  161.25 input   60.00 | X-H torsion
[ 4268 1114 1113 1110 ] final  146.33 input   59.99 | X-H torsion
[ 4409  924  923  921 ] final  -82.26 input   59.99 | X-H torsion
[ 4183 1244 1243 1241 ] final -102.76 input   59.99 | X-H torsion
[ 3800  178  177  174 ] final  -14.57 input   60.00 | X-H torsion
[ 3793  171  170  167 ] final  -33.64 input   60.00 | X-H torsion
[ 3576  185  184  181 ] final  -17.82 input   60.00 | X-H torsion
[ 3523  346  345  342 ] final   71.90 input   60.01 | X-H torsion
[ 3515  339  338  335 ] final   65.68 input   60.00 | X-H torsion
[ 3663  154  153  150 ] final -120.96 input   60.00 | X-H torsion
[ 4280 1130 1129 1126 ] final -146.27 input   60.00 | X-H torsion

> <Gold.Protein.ActiveResidues>
 VAL20   THR21   CYS22   GLY23   THR24   THR25   THR26   LEU27   ASN28   PRO39  
 ARG40   HIS41   VAL42   CYS44   THR45   SER46   ASP48   MET49   LEU50   PRO52  
 TYR54   TYR118  ASN119  ILE136  GLY138  SER139  PHE140  LEU141  ASN142  GLY143 
 SER144  CYS145  GLY146  SER147  TYR161  HIS163  HIS164  MET165  GLU166  LEU167 
 PRO168  THR169  GLY170  VAL171  HIS172  ALA173  PHE181  PHE185  VAL186  ASP187 
 ARG188  GLN189  THR190  ALA191  GLN192  ALA193 

> <Gold.Protein.RotatedAtoms>
  -14.8517   16.9650   76.2894 H   0  0  0  0  0  0  0  0  0  0  0  0  # atno 3372 bound_to 414 
   -3.5464   21.8237   74.2348 H   0  0  0  0  0  0  0  0  0  0  0  0  # atno 3515 bound_to 339 
   -2.6735   18.4969   73.1855 H   0  0  0  0  0  0  0  0  0  0  0  0  # atno 3523 bound_to 346 
   -8.7474   25.4735   63.8000 H   0  0  0  0  0  0  0  0  0  0  0  0  # atno 3576 bound_to 185 
   -6.8050   28.7064   65.3857 H   0  0  0  0  0  0  0  0  0  0  0  0  # atno 3663 bound_to 154 
   -3.2044   24.8997   72.5019 H   0  0  0  0  0  0  0  0  0  0  0  0  # atno 3793 bound_to 171 
   -6.0977   23.0802   71.4129 H   0  0  0  0  0  0  0  0  0  0  0  0  # atno 3800 bound_to 178 
  -14.9667    8.7582   77.0216 H   0  0  0  0  0  0  0  0  0  0  0  0  # atno 3973 bound_to 1471
  -20.1068   13.8873   64.2264 H   0  0  0  0  0  0  0  0  0  0  0  0  # atno 4183 bound_to 1244
  -13.8865   15.3793   60.8431 H   0  0  0  0  0  0  0  0  0  0  0  0  # atno 4268 bound_to 1114
  -16.1416   18.8684   58.1321 H   0  0  0  0  0  0  0  0  0  0  0  0  # atno 4280 bound_to 1130
  -12.1205   15.4202   57.5095 H   0  0  0  0  0  0  0  0  0  0  0  0  # atno 4409 bound_to 924 
  -15.5359    8.5578   78.5329 LP  0  0  0  0  0  0  0  0  0  0  0  0  # atno 4696 bound_to 1471
  -15.5344    7.3053   77.4851 LP  0  0  0  0  0  0  0  0  0  0  0  0  # atno 4697 bound_to 1471
  -13.8838   18.1203   75.6758 LP  0  0  0  0  0  0  0  0  0  0  0  0  # atno 4731 bound_to 414 
  -15.3594   17.8581   75.0275 LP  0  0  0  0  0  0  0  0  0  0  0  0  # atno 4732 bound_to 414 
  -13.6224   16.4532   62.0367 LP  0  0  0  0  0  0  0  0  0  0  0  0  # atno 4733 bound_to 1114
  -12.4014   15.5143   61.4942 LP  0  0  0  0  0  0  0  0  0  0  0  0  # atno 4734 bound_to 1114
  -10.5794   14.9591   57.7549 LP  0  0  0  0  0  0  0  0  0  0  0  0  # atno 4763 bound_to 924 
  -11.1587   15.1056   56.2351 LP  0  0  0  0  0  0  0  0  0  0  0  0  # atno 4764 bound_to 924 
  -20.2064   13.0005   62.8657 LP  0  0  0  0  0  0  0  0  0  0  0  0  # atno 4771 bound_to 1244
  -21.0558   12.5659   64.1910 LP  0  0  0  0  0  0  0  0  0  0  0  0  # atno 4772 bound_to 1244
   -7.4803   22.4279   71.9708 LP  0  0  0  0  0  0  0  0  0  0  0  0  # atno 4775 bound_to 178 
   -7.0430   23.9341   72.4256 LP  0  0  0  0  0  0  0  0  0  0  0  0  # atno 4776 bound_to 178 
   -1.7494   24.1711   72.5095 LP  0  0  0  0  0  0  0  0  0  0  0  0  # atno 4779 bound_to 171 
   -3.0038   23.4878   71.7182 LP  0  0  0  0  0  0  0  0  0  0  0  0  # atno 4780 bound_to 171 
   -7.3095   25.5074   63.0389 LP  0  0  0  0  0  0  0  0  0  0  0  0  # atno 4783 bound_to 185 
   -7.8889   26.8551   63.7562 LP  0  0  0  0  0  0  0  0  0  0  0  0  # atno 4784 bound_to 185 
   -3.5585   17.2367   72.6595 LP  0  0  0  0  0  0  0  0  0  0  0  0  # atno 4785 bound_to 346 
   -1.9321   17.1171   72.7447 LP  0  0  0  0  0  0  0  0  0  0  0  0  # atno 4786 bound_to 346 
   -3.2539   20.4369   75.0342 LP  0  0  0  0  0  0  0  0  0  0  0  0  # atno 4787 bound_to 339 
   -2.6652   21.8500   75.6026 LP  0  0  0  0  0  0  0  0  0  0  0  0  # atno 4788 bound_to 339 
   -7.6984   29.9957   64.9525 LP  0  0  0  0  0  0  0  0  0  0  0  0  # atno 4797 bound_to 154 
   -8.4287   28.5993   65.3807 LP  0  0  0  0  0  0  0  0  0  0  0  0  # atno 4798 bound_to 154 

$$$$
