unknown|prepared_Mpro-x0387|sdf|1|dock1
  -GOLD-   5 72214353D 1   1.00000     0.00000

 28 29  0  0  0  0  0  0  0  0  1 V2000
   -9.5512   17.0858   65.7679 O   0  0  0  0  0  0  0  0  0  0  0  0
  -10.5051   16.7394   66.7277 C   0  0  0  0  0  0  0  0  0  0  0  0
  -11.1325   15.3977   66.4623 C   0  0  0  0  0  0  0  0  0  0  0  0
  -11.2964   14.5537   67.6882 C   0  0  0  0  0  0  0  0  0  0  0  0
  -11.6744   15.2555   68.8649 N   0  0  0  0  0  0  0  0  0  0  0  0
  -11.4546   14.4202   70.0286 C   0  0  0  0  0  0  0  0  0  0  0  0
  -12.3031   14.9015   71.1971 C   0  0  0  0  0  0  0  0  0  0  0  0
  -13.6194   14.7010   71.2971 C   0  0  0  0  0  0  0  0  0  0  0  0
  -14.2636   15.1870   72.4022 C   0  0  0  0  0  0  0  0  0  0  0  0
  -12.9957   15.9173   73.2771 S   0  0  0  0  0  0  0  0  0  0  0  0
  -11.6991   15.5867   72.2241 C   0  0  0  0  0  0  0  0  0  0  0  0
  -11.0159   16.5011   69.0789 C   0  0  0  0  0  0  0  0  0  0  0  0
   -9.8577   16.6533   68.1112 C   0  0  0  0  0  0  0  0  0  0  0  0
   -8.6535   16.8807   66.1341 H   0  0  0  0  0  0  0  0  0  0  0  0
  -11.2986   17.5005   66.7689 H   0  0  0  0  0  0  0  0  0  0  0  0
  -12.1064   15.4943   65.9129 H   0  0  0  0  0  0  0  0  0  0  0  0
  -10.4504   14.8625   65.7670 H   0  0  0  0  0  0  0  0  0  0  0  0
  -10.3027   14.0713   67.8850 H   0  0  0  0  0  0  0  0  0  0  0  0
  -12.0733   13.7915   67.4679 H   0  0  0  0  0  0  0  0  0  0  0  0
  -10.3759   14.4840   70.3088 H   0  0  0  0  0  0  0  0  0  0  0  0
  -11.6656   13.3576   69.8250 H   0  0  0  0  0  0  0  0  0  0  0  0
  -14.1988   14.1567   70.5164 H   0  0  0  0  0  0  0  0  0  0  0  0
  -15.3411   15.1093   72.6399 H   0  0  0  0  0  0  0  0  0  0  0  0
  -10.6518   15.8691   72.3668 H   0  0  0  0  0  0  0  0  0  0  0  0
  -10.5944   16.6089   70.1100 H   0  0  0  0  0  0  0  0  0  0  0  0
  -11.6917   17.3762   68.8818 H   0  0  0  0  0  0  0  0  0  0  0  0
   -9.1946   15.7728   68.0965 H   0  0  0  0  0  0  0  0  0  0  0  0
   -9.2970   17.5931   68.2999 H   0  0  0  0  0  0  0  0  0  0  0  0
  1  2  1  0  0  0  0
  2  3  1  0  0  0  0
  3  4  1  0  0  0  0
  4  5  1  0  0  0  0
  5  6  1  0  0  0  0
  6  7  1  0  0  0  0
  7  8  1  0  0  0  0
  8  9  2  0  0  0  0
  9 10  1  0  0  0  0
 10 11  1  0  0  0  0
  5 12  1  0  0  0  0
 12 13  1  0  0  0  0
 13  2  1  0  0  0  0
  7 11  2  0  0  0  0
  1 14  1  0  0  0  0
  2 15  1  0  0  0  0
  3 16  1  0  0  0  0
  3 17  1  0  0  0  0
  4 18  1  0  0  0  0
  4 19  1  0  0  0  0
  6 20  1  0  0  0  0
  6 21  1  0  0  0  0
  8 22  1  0  0  0  0
  9 23  1  0  0  0  0
 11 24  1  0  0  0  0
 12 25  1  0  0  0  0
 12 26  1  0  0  0  0
 13 27  1  0  0  0  0
 13 28  1  0  0  0  0
M  END
> <Gold.Version>
2022.1.0

> <Gold.Id.Protein>
6LU7|6LU7_protein|mol2

> <Gold.PLP.Fitness>
38.9385

> <Gold.PLP.PLP>
-36.6061

> <Gold.PLP.part.hbond>
-1.0000

> <Gold.PLP.part.metal>
0.0000

> <Gold.PLP.part.buried>
-5.0506

> <Gold.PLP.part.nonpolar>
-31.1596

> <Gold.PLP.part.repulsive>
0.1487

> <Gold.PLP.ligand.clash>
0.0000

> <Gold.PLP.ligand.torsion>
0.3419

> <Gold.PLP.Chemscore.Hbond>
1.0000

> <Gold.PLP.Chemscore.CHOScore>
0.0000

> <Gold.PLP.Chemscore.Metal>
0.0000

> <Gold.Chemscore.Hbonds>
donor molecule, donor type, donor heavy atom, donor atom, acceptor molecule, acceptor atom, score
      P1  H  1105  4261       L1     1  1.00

> <Gold.PLP.Chemscore.Internal.Correction>
0.0161

> <Gold.Protein.RotatedTorsions>
[ 3973 1471 1470 1467 ] final  -53.54 input   60.00 | X-H torsion
[ 3372  414  413  411 ] final  -76.48 input   60.00 | X-H torsion
[ 4268 1114 1113 1110 ] final -161.53 input   59.99 | X-H torsion
[ 4409  924  923  921 ] final  171.57 input   59.99 | X-H torsion
[ 4183 1244 1243 1241 ] final  -73.35 input   59.99 | X-H torsion
[ 3800  178  177  174 ] final  -29.74 input   60.00 | X-H torsion
[ 3793  171  170  167 ] final  -54.36 input   60.00 | X-H torsion
[ 3576  185  184  181 ] final   18.27 input   60.00 | X-H torsion
[ 3523  346  345  342 ] final  -38.76 input   60.01 | X-H torsion
[ 3515  339  338  335 ] final  118.84 input   60.00 | X-H torsion
[ 3663  154  153  150 ] final   16.78 input   60.00 | X-H torsion
[ 4280 1130 1129 1126 ] final  119.36 input   60.00 | X-H torsion

> <Gold.Protein.ActiveResidues>
 VAL20   THR21   CYS22   GLY23   THR24   THR25   THR26   LEU27   ASN28   PRO39  
 ARG40   HIS41   VAL42   CYS44   THR45   SER46   ASP48   MET49   LEU50   PRO52  
 TYR54   TYR118  ASN119  ILE136  GLY138  SER139  PHE140  LEU141  ASN142  GLY143 
 SER144  CYS145  GLY146  SER147  TYR161  HIS163  HIS164  MET165  GLU166  LEU167 
 PRO168  THR169  GLY170  VAL171  HIS172  ALA173  PHE181  PHE185  VAL186  ASP187 
 ARG188  GLN189  THR190  ALA191  GLN192  ALA193 

> <Gold.Protein.RotatedAtoms>
  -15.3333   17.8844   75.0199 H   0  0  0  0  0  0  0  0  0  0  0  0  # atno 3372 bound_to 414 
   -3.1205   22.2910   74.7845 H   0  0  0  0  0  0  0  0  0  0  0  0  # atno 3515 bound_to 339 
   -3.6108   17.3727   72.7068 H   0  0  0  0  0  0  0  0  0  0  0  0  # atno 3523 bound_to 346 
   -8.7964   26.0189   63.9911 H   0  0  0  0  0  0  0  0  0  0  0  0  # atno 3576 bound_to 185 
   -8.5432   28.8530   65.2997 H   0  0  0  0  0  0  0  0  0  0  0  0  # atno 3663 bound_to 154 
   -2.9144   24.9923   72.6456 H   0  0  0  0  0  0  0  0  0  0  0  0  # atno 3793 bound_to 171 
   -6.1903   22.8567   71.3629 H   0  0  0  0  0  0  0  0  0  0  0  0  # atno 3800 bound_to 178 
  -14.9777    8.9129   77.1829 H   0  0  0  0  0  0  0  0  0  0  0  0  # atno 3973 bound_to 1471
  -20.3911   13.6704   64.5397 H   0  0  0  0  0  0  0  0  0  0  0  0  # atno 4183 bound_to 1244
  -13.1091   15.1101   60.8341 H   0  0  0  0  0  0  0  0  0  0  0  0  # atno 4268 bound_to 1114
  -15.5400   18.8902   59.3666 H   0  0  0  0  0  0  0  0  0  0  0  0  # atno 4280 bound_to 1130
  -10.7370   15.0116   57.9088 H   0  0  0  0  0  0  0  0  0  0  0  0  # atno 4409 bound_to 924 
  -15.6083    8.3483   78.5727 LP  0  0  0  0  0  0  0  0  0  0  0  0  # atno 4696 bound_to 1471
  -15.4509    7.3592   77.2829 LP  0  0  0  0  0  0  0  0  0  0  0  0  # atno 4697 bound_to 1471
  -14.8855   16.9532   76.2770 LP  0  0  0  0  0  0  0  0  0  0  0  0  # atno 4731 bound_to 414 
  -13.8728   18.0993   75.7047 LP  0  0  0  0  0  0  0  0  0  0  0  0  # atno 4732 bound_to 414 
  -14.1789   16.1299   61.5148 LP  0  0  0  0  0  0  0  0  0  0  0  0  # atno 4733 bound_to 1114
  -12.6278   16.1088   62.0252 LP  0  0  0  0  0  0  0  0  0  0  0  0  # atno 4734 bound_to 1114
  -10.9489   15.0436   56.2957 LP  0  0  0  0  0  0  0  0  0  0  0  0  # atno 4763 bound_to 924 
  -12.1828   15.4327   57.2921 LP  0  0  0  0  0  0  0  0  0  0  0  0  # atno 4764 bound_to 924 
  -19.9681   13.3958   62.9925 LP  0  0  0  0  0  0  0  0  0  0  0  0  # atno 4771 bound_to 1244
  -21.0078   12.3890   63.7487 LP  0  0  0  0  0  0  0  0  0  0  0  0  # atno 4772 bound_to 1244
   -7.6028   22.5822   72.1228 LP  0  0  0  0  0  0  0  0  0  0  0  0  # atno 4775 bound_to 178 
   -6.8273   24.0051   72.3240 LP  0  0  0  0  0  0  0  0  0  0  0  0  # atno 4776 bound_to 178 
   -1.7660   23.8830   72.3316 LP  0  0  0  0  0  0  0  0  0  0  0  0  # atno 4779 bound_to 171 
   -3.2793   23.6826   71.7515 LP  0  0  0  0  0  0  0  0  0  0  0  0  # atno 4780 bound_to 171 
   -7.7332   25.1204   63.1483 LP  0  0  0  0  0  0  0  0  0  0  0  0  # atno 4783 bound_to 185 
   -7.4159   26.6928   63.4543 LP  0  0  0  0  0  0  0  0  0  0  0  0  # atno 4784 bound_to 185 
   -2.0256   17.0049   72.6969 LP  0  0  0  0  0  0  0  0  0  0  0  0  # atno 4785 bound_to 346 
   -2.5212   18.4809   73.1893 LP  0  0  0  0  0  0  0  0  0  0  0  0  # atno 4786 bound_to 346 
   -3.6220   20.8001   74.3676 LP  0  0  0  0  0  0  0  0  0  0  0  0  # atno 4787 bound_to 339 
   -2.7260   21.0162   75.7156 LP  0  0  0  0  0  0  0  0  0  0  0  0  # atno 4788 bound_to 339 
   -6.9676   28.4760   65.4530 LP  0  0  0  0  0  0  0  0  0  0  0  0  # atno 4797 bound_to 154 
   -7.4089   29.9713   64.9669 LP  0  0  0  0  0  0  0  0  0  0  0  0  # atno 4798 bound_to 154 

$$$$
