unknown|prepared_Mpro-x0354|sdf|1|dock3
  -GOLD-   5 72214353D 1   1.00000     0.00000

 38 39  0  0  0  0  0  0  0  0  1 V2000
  -12.5321   15.6576   74.1985 C   0  0  0  0  0  0  0  0  0  0  0  0
  -13.0762   15.8328   72.8661 N   0  0  0  0  0  0  0  0  0  0  0  0
  -13.8917   14.7117   72.5449 C   0  0  0  0  0  0  0  0  0  0  0  0
  -12.9642   13.5619   72.1305 C   0  0  0  0  0  0  0  0  0  0  0  0
  -12.4128   13.9545   70.8523 N   0  0  0  0  0  0  0  0  0  0  0  0
  -12.1075   15.3531   70.6528 C   0  0  0  0  0  0  0  0  0  0  0  0
  -12.0525   16.1338   71.9255 C   0  0  0  0  0  0  0  0  0  0  0  0
  -12.1944   12.9798   69.8594 C   0  0  0  0  0  0  0  0  0  0  0  0
  -11.7099   13.3639   68.7533 O   0  0  0  0  0  0  0  0  0  0  0  0
  -12.5284   11.5715   70.1297 C   0  0  0  0  0  0  0  0  0  0  0  0
  -11.4014   10.9147   70.6428 O   0  0  0  0  0  0  0  0  0  0  0  0
  -11.5215    9.6346   71.1500 C   0  0  0  0  0  0  0  0  0  0  0  0
  -12.7311    8.9805   71.1676 C   0  0  0  0  0  0  0  0  0  0  0  0
  -12.8349    7.6894   71.6868 C   0  0  0  0  0  0  0  0  0  0  0  0
  -11.7483    7.0271   72.1940 C   0  0  0  0  0  0  0  0  0  0  0  0
  -11.8450    5.6540   72.7489 C   0  0  0  0  0  0  0  0  0  0  0  0
  -10.5484    7.6998   72.1657 C   0  0  0  0  0  0  0  0  0  0  0  0
  -10.4115    8.9664   71.6642 C   0  0  0  0  0  0  0  0  0  0  0  0
  -12.9335   14.7512   74.7027 H   0  0  0  0  0  0  0  0  0  0  0  0
  -12.8105   16.5127   74.8720 H   0  0  0  0  0  0  0  0  0  0  0  0
  -11.4316   15.5237   74.1621 H   0  0  0  0  0  0  0  0  0  0  0  0
  -14.5379   14.8947   71.6477 H   0  0  0  0  0  0  0  0  0  0  0  0
  -14.5136   14.4333   73.4076 H   0  0  0  0  0  0  0  0  0  0  0  0
  -13.5172   12.6098   72.0945 H   0  0  0  0  0  0  0  0  0  0  0  0
  -12.0950   13.5144   72.8490 H   0  0  0  0  0  0  0  0  0  0  0  0
  -12.7602   15.8519   69.9331 H   0  0  0  0  0  0  0  0  0  0  0  0
  -11.0666   15.3773   70.2137 H   0  0  0  0  0  0  0  0  0  0  0  0
  -11.0378   16.0168   72.3924 H   0  0  0  0  0  0  0  0  0  0  0  0
  -12.1219   17.2184   71.6687 H   0  0  0  0  0  0  0  0  0  0  0  0
  -13.3350   11.5178   70.8952 H   0  0  0  0  0  0  0  0  0  0  0  0
  -12.9376   11.0499   69.2382 H   0  0  0  0  0  0  0  0  0  0  0  0
  -13.6621    9.4086   70.7725 H   0  0  0  0  0  0  0  0  0  0  0  0
  -13.8034    7.1711   71.6992 H   0  0  0  0  0  0  0  0  0  0  0  0
  -12.8853    5.3947   73.0154 H   0  0  0  0  0  0  0  0  0  0  0  0
  -11.1336    5.4870   73.5850 H   0  0  0  0  0  0  0  0  0  0  0  0
  -11.5418    4.9219   71.9455 H   0  0  0  0  0  0  0  0  0  0  0  0
   -9.6728    7.1769   72.5696 H   0  0  0  0  0  0  0  0  0  0  0  0
   -9.4842    9.5095   71.6326 H   0  0  0  0  0  0  0  0  0  0  0  0
  1  2  1  0  0  0  0
  2  3  1  0  0  0  0
  3  4  1  0  0  0  0
  4  5  1  0  0  0  0
  5  6  1  0  0  0  0
  6  7  1  0  0  0  0
  5  8  1  0  0  0  0
  8  9  2  0  0  0  0
  8 10  1  0  0  0  0
 10 11  1  0  0  0  0
 11 12  1  0  0  0  0
 12 13  2  0  0  0  0
 13 14  1  0  0  0  0
 14 15  2  0  0  0  0
 15 16  1  0  0  0  0
 15 17  1  0  0  0  0
 17 18  2  0  0  0  0
  7  2  1  0  0  0  0
 12 18  1  0  0  0  0
  1 19  1  0  0  0  0
  1 20  1  0  0  0  0
  1 21  1  0  0  0  0
  3 22  1  0  0  0  0
  3 23  1  0  0  0  0
  4 24  1  0  0  0  0
  4 25  1  0  0  0  0
  6 26  1  0  0  0  0
  6 27  1  0  0  0  0
  7 28  1  0  0  0  0
  7 29  1  0  0  0  0
 10 30  1  0  0  0  0
 10 31  1  0  0  0  0
 13 32  1  0  0  0  0
 14 33  1  0  0  0  0
 16 34  1  0  0  0  0
 16 35  1  0  0  0  0
 16 36  1  0  0  0  0
 17 37  1  0  0  0  0
 18 38  1  0  0  0  0
M  END
> <Gold.Version>
2022.1.0

> <Gold.Id.Protein>
6LU7|6LU7_protein|mol2

> <Gold.PLP.Fitness>
47.3704

> <Gold.PLP.PLP>
-48.1434

> <Gold.PLP.part.hbond>
0.0000

> <Gold.PLP.part.metal>
0.0000

> <Gold.PLP.part.buried>
-5.8353

> <Gold.PLP.part.nonpolar>
-44.4448

> <Gold.PLP.part.repulsive>
0.5320

> <Gold.PLP.ligand.clash>
0.0000

> <Gold.PLP.ligand.torsion>
0.3929

> <Gold.PLP.Chemscore.Hbond>
0.0000

> <Gold.PLP.Chemscore.CHOScore>
0.0000

> <Gold.PLP.Chemscore.Metal>
0.0000

> <Gold.PLP.Chemscore.Internal.Correction>
0.0128

> <Gold.Protein.RotatedTorsions>
[ 3973 1471 1470 1467 ] final   -7.67 input   60.00 | X-H torsion
[ 3372  414  413  411 ] final   24.54 input   60.00 | X-H torsion
[ 4268 1114 1113 1110 ] final  158.89 input   59.99 | X-H torsion
[ 4409  924  923  921 ] final  -50.42 input   59.99 | X-H torsion
[ 4183 1244 1243 1241 ] final    1.75 input   59.99 | X-H torsion
[ 3800  178  177  174 ] final  111.89 input   60.00 | X-H torsion
[ 3793  171  170  167 ] final  -33.66 input   60.00 | X-H torsion
[ 3576  185  184  181 ] final  170.04 input   60.00 | X-H torsion
[ 3523  346  345  342 ] final   53.99 input   60.01 | X-H torsion
[ 3515  339  338  335 ] final  -42.08 input   60.00 | X-H torsion
[ 3663  154  153  150 ] final  114.20 input   60.00 | X-H torsion
[ 4280 1130 1129 1126 ] final   -5.01 input   60.00 | X-H torsion

> <Gold.Protein.ActiveResidues>
 VAL20   THR21   CYS22   GLY23   THR24   THR25   THR26   LEU27   ASN28   PRO39  
 ARG40   HIS41   VAL42   CYS44   THR45   SER46   ASP48   MET49   LEU50   PRO52  
 TYR54   TYR118  ASN119  ILE136  GLY138  SER139  PHE140  LEU141  ASN142  GLY143 
 SER144  CYS145  GLY146  SER147  TYR161  HIS163  HIS164  MET165  GLU166  LEU167 
 PRO168  THR169  GLY170  VAL171  HIS172  ALA173  PHE181  PHE185  VAL186  ASP187 
 ARG188  GLN189  THR190  ALA191  GLN192  ALA193 

> <Gold.Protein.RotatedAtoms>
  -14.0082   18.2469   75.4683 H   0  0  0  0  0  0  0  0  0  0  0  0  # atno 3372 bound_to 414 
   -3.3602   20.4620   74.8662 H   0  0  0  0  0  0  0  0  0  0  0  0  # atno 3515 bound_to 339 
   -2.9626   18.4754   73.1550 H   0  0  0  0  0  0  0  0  0  0  0  0  # atno 3523 bound_to 346 
   -7.1805   26.3041   63.2136 H   0  0  0  0  0  0  0  0  0  0  0  0  # atno 3576 bound_to 185 
   -7.7766   29.9819   64.9575 H   0  0  0  0  0  0  0  0  0  0  0  0  # atno 3663 bound_to 154 
   -3.2042   24.8998   72.5021 H   0  0  0  0  0  0  0  0  0  0  0  0  # atno 3793 bound_to 171 
   -7.1316   23.8825   72.4534 H   0  0  0  0  0  0  0  0  0  0  0  0  # atno 3800 bound_to 178 
  -15.0240    8.2918   76.8027 H   0  0  0  0  0  0  0  0  0  0  0  0  # atno 3973 bound_to 1471
  -21.0158   12.7289   64.3807 H   0  0  0  0  0  0  0  0  0  0  0  0  # atno 4183 bound_to 1244
  -13.7203   15.2719   60.7901 H   0  0  0  0  0  0  0  0  0  0  0  0  # atno 4268 bound_to 1114
  -16.1131   20.4019   59.0082 H   0  0  0  0  0  0  0  0  0  0  0  0  # atno 4280 bound_to 1130
  -12.1704   15.4259   56.9983 H   0  0  0  0  0  0  0  0  0  0  0  0  # atno 4409 bound_to 924 
  -15.3321    8.9520   78.2578 LP  0  0  0  0  0  0  0  0  0  0  0  0  # atno 4696 bound_to 1471
  -15.6804    7.3809   77.9806 LP  0  0  0  0  0  0  0  0  0  0  0  0  # atno 4697 bound_to 1471
  -15.4922   17.6563   75.1567 LP  0  0  0  0  0  0  0  0  0  0  0  0  # atno 4731 bound_to 414 
  -14.6004   17.0312   76.3735 LP  0  0  0  0  0  0  0  0  0  0  0  0  # atno 4732 bound_to 414 
  -13.8019   16.4196   61.9407 LP  0  0  0  0  0  0  0  0  0  0  0  0  # atno 4733 bound_to 1114
  -12.3893   15.6562   61.6436 LP  0  0  0  0  0  0  0  0  0  0  0  0  # atno 4734 bound_to 1114
  -10.9810   15.0853   58.0553 LP  0  0  0  0  0  0  0  0  0  0  0  0  # atno 4763 bound_to 924 
  -10.7069   14.9736   56.4494 LP  0  0  0  0  0  0  0  0  0  0  0  0  # atno 4764 bound_to 924 
  -19.9843   13.9313   64.0091 LP  0  0  0  0  0  0  0  0  0  0  0  0  # atno 4771 bound_to 1244
  -20.3624   12.8017   62.8922 LP  0  0  0  0  0  0  0  0  0  0  0  0  # atno 4772 bound_to 1244
   -6.0677   23.1773   71.4440 LP  0  0  0  0  0  0  0  0  0  0  0  0  # atno 4775 bound_to 178 
   -7.4145   22.3769   71.9046 LP  0  0  0  0  0  0  0  0  0  0  0  0  # atno 4776 bound_to 178 
   -1.7494   24.1709   72.5094 LP  0  0  0  0  0  0  0  0  0  0  0  0  # atno 4779 bound_to 171 
   -3.0041   23.4879   71.7182 LP  0  0  0  0  0  0  0  0  0  0  0  0  # atno 4780 bound_to 171 
   -8.5841   26.4866   64.0164 LP  0  0  0  0  0  0  0  0  0  0  0  0  # atno 4783 bound_to 185 
   -8.1924   25.0394   63.3693 LP  0  0  0  0  0  0  0  0  0  0  0  0  # atno 4784 bound_to 185 
   -3.3864   17.0090   72.5910 LP  0  0  0  0  0  0  0  0  0  0  0  0  # atno 4785 bound_to 346 
   -1.8132   17.3664   72.8438 LP  0  0  0  0  0  0  0  0  0  0  0  0  # atno 4786 bound_to 346 
   -2.6404   21.6691   75.6864 LP  0  0  0  0  0  0  0  0  0  0  0  0  # atno 4787 bound_to 339 
   -3.4662   21.9892   74.3145 LP  0  0  0  0  0  0  0  0  0  0  0  0  # atno 4788 bound_to 339 
   -8.3821   28.5381   65.4012 LP  0  0  0  0  0  0  0  0  0  0  0  0  # atno 4797 bound_to 154 
   -6.7664   28.7723   65.3632 LP  0  0  0  0  0  0  0  0  0  0  0  0  # atno 4798 bound_to 154 

$$$$
