unknown|prepared_Mpro-x0397|sdf|1|dock4
  -GOLD-   5 72214353D 1   1.00000     0.00000

 30 31  0  0  0  0  0  0  0  0  1 V2000
   -9.4130   14.4958   68.9160 C   0  0  0  0  0  0  0  0  0  0  0  0
  -10.7339   15.0785   68.7485 N   0  0  0  0  0  0  0  0  0  0  0  0
  -11.1108   15.6112   67.4365 C   0  0  0  0  0  0  0  0  0  0  0  0
  -11.1781   14.5094   66.4316 C   0  0  0  0  0  0  0  0  0  0  0  0
  -12.2506   14.1300   65.6747 C   0  0  0  0  0  0  0  0  0  0  0  0
  -11.8307   13.0673   64.8953 C   0  0  0  0  0  0  0  0  0  0  0  0
  -12.6008   12.2866   63.9003 C   0  0  0  0  0  0  0  0  0  0  0  0
  -10.5650   12.8590   65.2058 O   0  0  0  0  0  0  0  0  0  0  0  0
  -10.1696   13.6979   66.1058 N   0  0  0  0  0  0  0  0  0  0  0  0
  -11.6367   15.1272   69.8401 C   0  0  0  0  0  0  0  0  0  0  0  0
  -12.6250   15.9014   69.7695 O   0  0  0  0  0  0  0  0  0  0  0  0
  -11.4010   14.3093   70.9687 N   0  0  0  0  0  0  0  0  0  0  0  0
  -12.2771   14.3198   72.0925 C   0  0  0  0  0  0  0  0  0  0  0  0
  -12.7919   15.6593   72.5599 C   0  0  0  0  0  0  0  0  0  0  0  0
  -13.7140   14.6556   71.9737 C   0  0  0  0  0  0  0  0  0  0  0  0
   -8.9543   14.9199   69.8530 H   0  0  0  0  0  0  0  0  0  0  0  0
   -8.7630   14.6926   68.0452 H   0  0  0  0  0  0  0  0  0  0  0  0
   -9.5261   13.3993   69.0579 H   0  0  0  0  0  0  0  0  0  0  0  0
  -12.1229   16.0592   67.5120 H   0  0  0  0  0  0  0  0  0  0  0  0
  -10.3967   16.4019   67.1203 H   0  0  0  0  0  0  0  0  0  0  0  0
  -13.2467   14.5598   65.6665 H   0  0  0  0  0  0  0  0  0  0  0  0
  -12.4159   11.2034   64.0805 H   0  0  0  0  0  0  0  0  0  0  0  0
  -12.2226   12.4992   62.8862 H   0  0  0  0  0  0  0  0  0  0  0  0
  -13.6692   12.4815   63.9742 H   0  0  0  0  0  0  0  0  0  0  0  0
  -10.5603   13.6641   71.0052 H   0  0  0  0  0  0  0  0  0  0  0  0
  -12.0178   13.6014   72.9075 H   0  0  0  0  0  0  0  0  0  0  0  0
  -12.8024   15.8377   73.6535 H   0  0  0  0  0  0  0  0  0  0  0  0
  -12.4391   16.5277   71.9859 H   0  0  0  0  0  0  0  0  0  0  0  0
  -14.1859   14.8389   70.9809 H   0  0  0  0  0  0  0  0  0  0  0  0
  -14.4210   14.1901   72.6917 H   0  0  0  0  0  0  0  0  0  0  0  0
  1  2  1  0  0  0  0
  2  3  1  0  0  0  0
  3  4  1  0  0  0  0
  4  5  1  0  0  0  0
  5  6  2  0  0  0  0
  6  7  1  0  0  0  0
  6  8  1  0  0  0  0
  8  9  1  0  0  0  0
  2 10  1  0  0  0  0
 10 11  2  0  0  0  0
 10 12  1  0  0  0  0
 12 13  1  0  0  0  0
 13 14  1  0  0  0  0
 14 15  1  0  0  0  0
  4  9  2  0  0  0  0
 15 13  1  0  0  0  0
  1 16  1  0  0  0  0
  1 17  1  0  0  0  0
  1 18  1  0  0  0  0
  3 19  1  0  0  0  0
  3 20  1  0  0  0  0
  5 21  1  0  0  0  0
  7 22  1  0  0  0  0
  7 23  1  0  0  0  0
  7 24  1  0  0  0  0
 12 25  1  0  0  0  0
 13 26  1  0  0  0  0
 14 27  1  0  0  0  0
 14 28  1  0  0  0  0
 15 29  1  0  0  0  0
 15 30  1  0  0  0  0
M  END
> <Gold.Version>
2022.1.0

> <Gold.Id.Protein>
6LU7|6LU7_protein|mol2

> <Gold.PLP.Fitness>
37.1919

> <Gold.PLP.PLP>
-35.0291

> <Gold.PLP.part.hbond>
-1.0000

> <Gold.PLP.part.metal>
0.0000

> <Gold.PLP.part.buried>
-5.4287

> <Gold.PLP.part.nonpolar>
-30.1337

> <Gold.PLP.part.repulsive>
1.2539

> <Gold.PLP.ligand.clash>
0.0000

> <Gold.PLP.ligand.torsion>
0.4618

> <Gold.PLP.Chemscore.Hbond>
1.0000

> <Gold.PLP.Chemscore.CHOScore>
0.0000

> <Gold.PLP.Chemscore.Metal>
0.0000

> <Gold.Chemscore.Hbonds>
donor molecule, donor type, donor heavy atom, donor atom, acceptor molecule, acceptor atom, score
      L1  H    12    25       P1  1464  1.00

> <Gold.PLP.Chemscore.Internal.Correction>
0.0864

> <Gold.Protein.RotatedTorsions>
[ 3973 1471 1470 1467 ] final -175.99 input   60.00 | X-H torsion
[ 3372  414  413  411 ] final  -43.30 input   60.00 | X-H torsion
[ 4268 1114 1113 1110 ] final  121.79 input   59.99 | X-H torsion
[ 4409  924  923  921 ] final   41.52 input   59.99 | X-H torsion
[ 4183 1244 1243 1241 ] final -164.79 input   59.99 | X-H torsion
[ 3800  178  177  174 ] final  -22.49 input   60.00 | X-H torsion
[ 3793  171  170  167 ] final  125.84 input   60.00 | X-H torsion
[ 3576  185  184  181 ] final   94.31 input   60.00 | X-H torsion
[ 3523  346  345  342 ] final -168.81 input   60.01 | X-H torsion
[ 3515  339  338  335 ] final   24.11 input   60.00 | X-H torsion
[ 3663  154  153  150 ] final  -19.49 input   60.00 | X-H torsion
[ 4280 1130 1129 1126 ] final   89.59 input   60.00 | X-H torsion

> <Gold.Protein.ActiveResidues>
 VAL20   THR21   CYS22   GLY23   THR24   THR25   THR26   LEU27   ASN28   PRO39  
 ARG40   HIS41   VAL42   CYS44   THR45   SER46   ASP48   MET49   LEU50   PRO52  
 TYR54   TYR118  ASN119  ILE136  GLY138  SER139  PHE140  LEU141  ASN142  GLY143 
 SER144  CYS145  GLY146  SER147  TYR161  HIS163  HIS164  MET165  GLU166  LEU167 
 PRO168  THR169  GLY170  VAL171  HIS172  ALA173  PHE181  PHE185  VAL186  ASP187 
 ARG188  GLN189  THR190  ALA191  GLN192  ALA193 

> <Gold.Protein.RotatedAtoms>
  -14.9122   18.2053   74.9458 H   0  0  0  0  0  0  0  0  0  0  0  0  # atno 3372 bound_to 414 
   -3.6724   21.1722   74.2004 H   0  0  0  0  0  0  0  0  0  0  0  0  # atno 3515 bound_to 339 
   -1.9316   17.1288   72.7514 H   0  0  0  0  0  0  0  0  0  0  0  0  # atno 3523 bound_to 346 
   -8.0028   26.8367   63.8143 H   0  0  0  0  0  0  0  0  0  0  0  0  # atno 3576 bound_to 185 
   -8.2190   28.3937   65.4532 H   0  0  0  0  0  0  0  0  0  0  0  0  # atno 3663 bound_to 154 
   -2.3895   23.3854   71.8407 H   0  0  0  0  0  0  0  0  0  0  0  0  # atno 3793 bound_to 171 
   -6.1396   22.9620   71.3820 H   0  0  0  0  0  0  0  0  0  0  0  0  # atno 3800 bound_to 178 
  -15.6157    8.3083   78.5688 H   0  0  0  0  0  0  0  0  0  0  0  0  # atno 3973 bound_to 1471
  -19.8625   13.7179   63.3087 H   0  0  0  0  0  0  0  0  0  0  0  0  # atno 4183 bound_to 1244
  -14.1247   15.6393   61.0275 H   0  0  0  0  0  0  0  0  0  0  0  0  # atno 4268 bound_to 1114
  -15.5318   19.3073   59.6058 H   0  0  0  0  0  0  0  0  0  0  0  0  # atno 4280 bound_to 1130
  -11.1008   15.0908   56.2529 H   0  0  0  0  0  0  0  0  0  0  0  0  # atno 4409 bound_to 924 
  -15.4353    7.3740   77.2488 LP  0  0  0  0  0  0  0  0  0  0  0  0  # atno 4696 bound_to 1471
  -14.9814    8.9422   77.2109 LP  0  0  0  0  0  0  0  0  0  0  0  0  # atno 4697 bound_to 1471
  -15.3175   16.9982   75.9590 LP  0  0  0  0  0  0  0  0  0  0  0  0  # atno 4731 bound_to 414 
  -13.8648   17.7311   76.0974 LP  0  0  0  0  0  0  0  0  0  0  0  0  # atno 4732 bound_to 414 
  -13.2365   16.4260   62.1412 LP  0  0  0  0  0  0  0  0  0  0  0  0  # atno 4733 bound_to 1114
  -12.5474   15.2798   61.2040 LP  0  0  0  0  0  0  0  0  0  0  0  0  # atno 4734 bound_to 1114
  -12.1473   15.4249   57.4533 LP  0  0  0  0  0  0  0  0  0  0  0  0  # atno 4763 bound_to 924 
  -10.6179   14.9715   57.8022 LP  0  0  0  0  0  0  0  0  0  0  0  0  # atno 4764 bound_to 924 
  -20.8245   12.4054   63.3216 LP  0  0  0  0  0  0  0  0  0  0  0  0  # atno 4771 bound_to 1244
  -20.6838   13.3315   64.6593 LP  0  0  0  0  0  0  0  0  0  0  0  0  # atno 4772 bound_to 1244
   -7.5502   22.5028   72.0511 LP  0  0  0  0  0  0  0  0  0  0  0  0  # atno 4775 bound_to 178 
   -6.9310   23.9784   72.3764 LP  0  0  0  0  0  0  0  0  0  0  0  0  # atno 4776 bound_to 178 
   -3.5428   24.4894   72.1556 LP  0  0  0  0  0  0  0  0  0  0  0  0  # atno 4779 bound_to 171 
   -2.0311   24.6947   72.7381 LP  0  0  0  0  0  0  0  0  0  0  0  0  # atno 4780 bound_to 171 
   -8.7008   25.3686   63.7406 LP  0  0  0  0  0  0  0  0  0  0  0  0  # atno 4783 bound_to 185 
   -7.2475   25.6210   63.0401 LP  0  0  0  0  0  0  0  0  0  0  0  0  # atno 4784 bound_to 185 
   -2.6847   18.5047   73.1849 LP  0  0  0  0  0  0  0  0  0  0  0  0  # atno 4785 bound_to 346 
   -3.5531   17.2268   72.6563 LP  0  0  0  0  0  0  0  0  0  0  0  0  # atno 4786 bound_to 346 
   -2.8912   20.6812   75.5407 LP  0  0  0  0  0  0  0  0  0  0  0  0  # atno 4787 bound_to 339 
   -2.9010   22.2618   75.1308 LP  0  0  0  0  0  0  0  0  0  0  0  0  # atno 4788 bound_to 339 
   -6.7087   28.9796   65.2985 LP  0  0  0  0  0  0  0  0  0  0  0  0  # atno 4797 bound_to 154 
   -7.9943   29.9302   64.9667 LP  0  0  0  0  0  0  0  0  0  0  0  0  # atno 4798 bound_to 154 

$$$$
