unknown|prepared_Mpro-x0967|sdf|1|dock1
  -GOLD-   5 72214353D 1   1.00000     0.00000

 35 35  0  0  0  0  0  0  0  0  1 V2000
  -12.5684   14.8491   73.1172 C   0  0  0  0  0  0  0  0  0  0  0  0
  -12.7705   14.2991   71.7494 C   0  0  0  0  0  0  0  0  0  0  0  0
  -13.8422   14.4729   71.1694 O   0  0  0  0  0  0  0  0  0  0  0  0
  -11.7227   13.5853   71.1072 N   0  0  0  0  0  0  0  0  0  0  0  0
  -11.6117   13.0406   69.8499 C   0  0  0  0  0  0  0  0  0  0  0  0
  -12.5430   11.8985   69.4659 C   0  0  0  0  0  0  0  0  0  0  0  0
  -12.2819   10.7701   70.4089 C   0  0  0  0  0  0  0  0  0  0  0  0
  -13.2982   10.3192   71.2524 C   0  0  0  0  0  0  0  0  0  0  0  0
  -13.0560    9.3334   72.1698 C   0  0  0  0  0  0  0  0  0  0  0  0
  -11.7733    8.7296   72.3040 C   0  0  0  0  0  0  0  0  0  0  0  0
  -10.7923    9.1482   71.5021 C   0  0  0  0  0  0  0  0  0  0  0  0
  -11.0623   10.1664   70.5584 C   0  0  0  0  0  0  0  0  0  0  0  0
  -11.7349    7.7316   73.2975 O   0  0  0  0  0  0  0  0  0  0  0  0
  -11.4769   13.9460   68.6775 C   0  0  0  0  0  0  0  0  0  0  0  0
  -12.0719   14.9270   68.4714 O   0  0  0  0  0  0  0  0  0  0  0  0
  -10.4276   13.4099   67.7651 N   0  0  0  0  0  0  0  0  0  0  0  0
  -10.2218   14.1392   66.5647 C   0  0  0  0  0  0  0  0  0  0  0  0
  -11.0445   13.3827   65.4544 C   0  0  0  0  0  0  0  0  0  0  0  0
  -11.6467   12.8537   64.6640 C   0  0  0  0  0  0  0  0  0  0  0  0
  -12.6145   11.9808   63.3912 Br  0  0  0  0  0  0  0  0  0  0  0  0
  -13.4214   15.3765   73.5339 H   0  0  0  0  0  0  0  0  0  0  0  0
  -11.6665   15.5523   73.0708 H   0  0  0  0  0  0  0  0  0  0  0  0
  -12.1961   14.0610   73.8278 H   0  0  0  0  0  0  0  0  0  0  0  0
  -10.8577   13.4408   71.7671 H   0  0  0  0  0  0  0  0  0  0  0  0
  -10.5555   12.4515   69.8611 H   0  0  0  0  0  0  0  0  0  0  0  0
  -13.6053   12.2715   69.6539 H   0  0  0  0  0  0  0  0  0  0  0  0
  -12.5402   11.5588   68.4500 H   0  0  0  0  0  0  0  0  0  0  0  0
  -14.2579   10.7773   71.0992 H   0  0  0  0  0  0  0  0  0  0  0  0
  -13.8830    8.9844   72.8356 H   0  0  0  0  0  0  0  0  0  0  0  0
   -9.7782    8.7767   71.5388 H   0  0  0  0  0  0  0  0  0  0  0  0
  -10.2492   10.4775   69.8947 H   0  0  0  0  0  0  0  0  0  0  0  0
  -12.4829    7.4587   73.8623 H   0  0  0  0  0  0  0  0  0  0  0  0
   -9.8680   12.5776   67.9741 H   0  0  0  0  0  0  0  0  0  0  0  0
  -10.5818   15.1672   66.5948 H   0  0  0  0  0  0  0  0  0  0  0  0
   -9.1821   14.1422   66.2358 H   0  0  0  0  0  0  0  0  0  0  0  0
  1  2  1  0  0  0  0
  2  3  2  0  0  0  0
  2  4  1  0  0  0  0
  4  5  1  0  0  0  0
  5  6  1  0  0  0  0
  6  7  1  0  0  0  0
  7  8  2  0  0  0  0
  8  9  1  0  0  0  0
  9 10  2  0  0  0  0
 10 11  1  0  0  0  0
 11 12  2  0  0  0  0
 10 13  1  0  0  0  0
  5 14  1  0  0  0  0
 14 15  2  0  0  0  0
 14 16  1  0  0  0  0
 16 17  1  0  0  0  0
 17 18  1  0  0  0  0
 18 19  3  0  0  0  0
 19 20  1  0  0  0  0
 12  7  1  0  0  0  0
  1 21  1  0  0  0  0
  1 22  1  0  0  0  0
  1 23  1  0  0  0  0
  4 24  1  0  0  0  0
  5 25  1  0  0  0  0
  6 26  1  0  0  0  0
  6 27  1  0  0  0  0
  8 28  1  0  0  0  0
  9 29  1  0  0  0  0
 11 30  1  0  0  0  0
 12 31  1  0  0  0  0
 13 32  1  0  0  0  0
 16 33  1  0  0  0  0
 17 34  1  0  0  0  0
 17 35  1  0  0  0  0
M  END
> <Gold.Version>
2022.1.0

> <Gold.Id.Protein>
6LU7|6LU7_protein|mol2

> <Gold.PLP.Fitness>
51.0505

> <Gold.PLP.PLP>
-46.9645

> <Gold.PLP.part.hbond>
-2.4605

> <Gold.PLP.part.metal>
0.0000

> <Gold.PLP.part.buried>
-6.3497

> <Gold.PLP.part.nonpolar>
-39.3601

> <Gold.PLP.part.repulsive>
0.6917

> <Gold.PLP.ligand.clash>
0.0000

> <Gold.PLP.ligand.torsion>
0.8836

> <Gold.PLP.Chemscore.Hbond>
1.6144

> <Gold.PLP.Chemscore.CHOScore>
0.0000

> <Gold.PLP.Chemscore.Metal>
0.0000

> <Gold.Chemscore.Hbonds>
donor molecule, donor type, donor heavy atom, donor atom, acceptor molecule, acceptor atom, score
      L1  H     4    24       P1  1464  0.61
      L1  H    13    32       P1  1469  1.00

> <Gold.PLP.Chemscore.Internal.Correction>
1.0101

> <Gold.Protein.RotatedTorsions>
[ 3973 1471 1470 1467 ] final -110.75 input   60.00 | X-H torsion
[ 3372  414  413  411 ] final  -50.39 input   60.00 | X-H torsion
[ 4268 1114 1113 1110 ] final  -49.57 input   59.99 | X-H torsion
[ 4409  924  923  921 ] final   99.51 input   59.99 | X-H torsion
[ 4183 1244 1243 1241 ] final -171.32 input   59.99 | X-H torsion
[ 3800  178  177  174 ] final  117.47 input   60.00 | X-H torsion
[ 3793  171  170  167 ] final -139.91 input   60.00 | X-H torsion
[ 3576  185  184  181 ] final   54.80 input   60.00 | X-H torsion
[ 3523  346  345  342 ] final  -77.35 input   60.01 | X-H torsion
[ 3515  339  338  335 ] final  -33.43 input   60.00 | X-H torsion
[ 3663  154  153  150 ] final   59.27 input   60.00 | X-H torsion
[ 4280 1130 1129 1126 ] final    7.18 input   60.00 | X-H torsion

> <Gold.Protein.ActiveResidues>
 VAL20   THR21   CYS22   GLY23   THR24   THR25   THR26   LEU27   ASN28   PRO39  
 ARG40   HIS41   VAL42   CYS44   THR45   SER46   ASP48   MET49   LEU50   PRO52  
 TYR54   TYR118  ASN119  ILE136  GLY138  SER139  PHE140  LEU141  ASN142  GLY143 
 SER144  CYS145  GLY146  SER147  TYR161  HIS163  HIS164  MET165  GLU166  LEU167 
 PRO168  THR169  GLY170  VAL171  HIS172  ALA173  PHE181  PHE185  VAL186  ASP187 
 ARG188  GLN189  THR190  ALA191  GLN192  ALA193 

> <Gold.Protein.RotatedAtoms>
  -15.0133   18.1492   74.9415 H   0  0  0  0  0  0  0  0  0  0  0  0  # atno 3372 bound_to 414 
   -3.4291   20.4999   74.7489 H   0  0  0  0  0  0  0  0  0  0  0  0  # atno 3515 bound_to 339 
   -3.2394   16.8986   72.5654 H   0  0  0  0  0  0  0  0  0  0  0  0  # atno 3523 bound_to 346 
   -8.5284   26.5406   64.0056 H   0  0  0  0  0  0  0  0  0  0  0  0  # atno 3576 bound_to 185 
   -8.4775   29.4967   65.0961 H   0  0  0  0  0  0  0  0  0  0  0  0  # atno 3663 bound_to 154 
   -1.8088   24.3655   72.6054 H   0  0  0  0  0  0  0  0  0  0  0  0  # atno 3793 bound_to 171 
   -7.2054   23.8345   72.4766 H   0  0  0  0  0  0  0  0  0  0  0  0  # atno 3800 bound_to 178 
  -15.2212    9.0664   78.0319 H   0  0  0  0  0  0  0  0  0  0  0  0  # atno 3973 bound_to 1471
  -19.8756   13.6538   63.2243 H   0  0  0  0  0  0  0  0  0  0  0  0  # atno 4183 bound_to 1244
  -12.5529   16.0227   61.9593 H   0  0  0  0  0  0  0  0  0  0  0  0  # atno 4268 bound_to 1114
  -16.0183   20.3564   59.1768 H   0  0  0  0  0  0  0  0  0  0  0  0  # atno 4280 bound_to 1130
  -10.4452   14.9046   56.8522 H   0  0  0  0  0  0  0  0  0  0  0  0  # atno 4409 bound_to 924 
  -15.7177    7.5274   78.2131 LP  0  0  0  0  0  0  0  0  0  0  0  0  # atno 4696 bound_to 1471
  -15.0963    8.0254   76.7874 LP  0  0  0  0  0  0  0  0  0  0  0  0  # atno 4697 bound_to 1471
  -15.2381   16.9692   76.0393 LP  0  0  0  0  0  0  0  0  0  0  0  0  # atno 4731 bound_to 414 
  -13.8423   17.8166   76.0214 LP  0  0  0  0  0  0  0  0  0  0  0  0  # atno 4732 bound_to 414 
  -13.2353   15.1120   60.7962 LP  0  0  0  0  0  0  0  0  0  0  0  0  # atno 4733 bound_to 1114
  -14.1316   16.2076   61.6105 LP  0  0  0  0  0  0  0  0  0  0  0  0  # atno 4734 bound_to 1114
  -11.9799   15.3583   56.5573 LP  0  0  0  0  0  0  0  0  0  0  0  0  # atno 4763 bound_to 924 
  -11.4457   15.2257   58.0947 LP  0  0  0  0  0  0  0  0  0  0  0  0  # atno 4764 bound_to 924 
  -20.8764   12.3847   63.4135 LP  0  0  0  0  0  0  0  0  0  0  0  0  # atno 4771 bound_to 1244
  -20.6187   13.4168   64.6525 LP  0  0  0  0  0  0  0  0  0  0  0  0  # atno 4772 bound_to 1244
   -6.0557   23.2618   71.4774 LP  0  0  0  0  0  0  0  0  0  0  0  0  # atno 4775 bound_to 178 
   -7.3522   22.3407   71.8478 LP  0  0  0  0  0  0  0  0  0  0  0  0  # atno 4776 bound_to 178 
   -2.7938   23.4074   71.7338 LP  0  0  0  0  0  0  0  0  0  0  0  0  # atno 4779 bound_to 171 
   -3.3650   24.7895   72.3897 LP  0  0  0  0  0  0  0  0  0  0  0  0  # atno 4780 bound_to 171 
   -8.2592   25.0511   63.4085 LP  0  0  0  0  0  0  0  0  0  0  0  0  # atno 4783 bound_to 185 
   -7.1598   26.2367   63.1795 LP  0  0  0  0  0  0  0  0  0  0  0  0  # atno 4784 bound_to 185 
   -1.7830   17.5385   72.9082 LP  0  0  0  0  0  0  0  0  0  0  0  0  # atno 4785 bound_to 346 
   -3.1379   18.4249   73.1205 LP  0  0  0  0  0  0  0  0  0  0  0  0  # atno 4786 bound_to 346 
   -2.6370   21.5325   75.7259 LP  0  0  0  0  0  0  0  0  0  0  0  0  # atno 4787 bound_to 339 
   -3.4002   22.0876   74.3932 LP  0  0  0  0  0  0  0  0  0  0  0  0  # atno 4788 bound_to 339 
   -7.5894   28.2027   65.5260 LP  0  0  0  0  0  0  0  0  0  0  0  0  # atno 4797 bound_to 154 
   -6.8533   29.5963   65.0988 LP  0  0  0  0  0  0  0  0  0  0  0  0  # atno 4798 bound_to 154 

$$$$
