unknown|prepared_Mpro-x0946|sdf|1|dock4
  -GOLD-   5 72214353D 1   1.00000     0.00000

 17 17  0  0  0  0  0  0  0  0  1 V2000
  -13.1908   16.1924   73.6263 Br  0  0  0  0  0  0  0  0  0  0  0  0
  -12.6942   15.0676   72.1564 C   0  0  0  0  0  0  0  0  0  0  0  0
  -13.0187   13.7285   72.1561 C   0  0  0  0  0  0  0  0  0  0  0  0
  -12.6693   12.8940   71.1018 C   0  0  0  0  0  0  0  0  0  0  0  0
  -11.9791   13.3843   70.0098 C   0  0  0  0  0  0  0  0  0  0  0  0
  -11.5178   12.3688   68.6575 S   0  0  0  0  0  0  0  0  0  0  0  0
   -9.8591   11.9903   68.8009 N   0  0  0  0  0  0  0  0  0  0  0  0
  -11.8663   13.0727   67.3989 O   0  0  0  0  0  0  0  0  0  0  0  0
  -12.3008   11.0942   68.7153 O   0  0  0  0  0  0  0  0  0  0  0  0
  -11.6574   14.7265   70.0164 C   0  0  0  0  0  0  0  0  0  0  0  0
  -12.0079   15.5553   71.0705 C   0  0  0  0  0  0  0  0  0  0  0  0
  -13.5556   13.3151   72.9910 H   0  0  0  0  0  0  0  0  0  0  0  0
  -12.9198   11.8478   71.0959 H   0  0  0  0  0  0  0  0  0  0  0  0
   -9.4245   12.2709   69.6909 H   0  0  0  0  0  0  0  0  0  0  0  0
   -9.2985   12.2081   67.9562 H   0  0  0  0  0  0  0  0  0  0  0  0
  -11.1083   15.1082   69.1438 H   0  0  0  0  0  0  0  0  0  0  0  0
  -11.7463   16.6001   71.0542 H   0  0  0  0  0  0  0  0  0  0  0  0
  1  2  1  0  0  0  0
  2  3  2  0  0  0  0
  3  4  1  0  0  0  0
  4  5  2  0  0  0  0
  5  6  1  0  0  0  0
  6  7  1  0  0  0  0
  6  8  2  0  0  0  0
  6  9  2  0  0  0  0
  5 10  1  0  0  0  0
 10 11  2  0  0  0  0
 11  2  1  0  0  0  0
  3 12  1  0  0  0  0
  4 13  1  0  0  0  0
  7 14  1  0  0  0  0
  7 15  1  0  0  0  0
 10 16  1  0  0  0  0
 11 17  1  0  0  0  0
M  END
> <Gold.Version>
2022.1.0

> <Gold.Id.Protein>
6LU7|6LU7_protein|mol2

> <Gold.PLP.Fitness>
37.5669

> <Gold.PLP.PLP>
-31.7447

> <Gold.PLP.part.hbond>
-1.9713

> <Gold.PLP.part.metal>
0.0000

> <Gold.PLP.part.buried>
-3.3064

> <Gold.PLP.part.nonpolar>
-27.1865

> <Gold.PLP.part.repulsive>
0.1603

> <Gold.PLP.ligand.clash>
0.0000

> <Gold.PLP.ligand.torsion>
1.1664

> <Gold.PLP.Chemscore.Hbond>
2.0000

> <Gold.PLP.Chemscore.CHOScore>
0.0000

> <Gold.PLP.Chemscore.Metal>
0.0000

> <Gold.Chemscore.Hbonds>
donor molecule, donor type, donor heavy atom, donor atom, acceptor molecule, acceptor atom, score
      L1  H     7    14       P1  1464  1.00
      P1  H  1281  4132       L1     9  1.00

> <Gold.PLP.Chemscore.Internal.Correction>
2.1550

> <Gold.Protein.RotatedTorsions>
[ 3973 1471 1470 1467 ] final  -72.18 input   60.00 | X-H torsion
[ 3372  414  413  411 ] final  -45.99 input   60.00 | X-H torsion
[ 4268 1114 1113 1110 ] final  159.29 input   59.99 | X-H torsion
[ 4409  924  923  921 ] final  -54.99 input   59.99 | X-H torsion
[ 4183 1244 1243 1241 ] final  -70.63 input   59.99 | X-H torsion
[ 3800  178  177  174 ] final  133.27 input   60.00 | X-H torsion
[ 3793  171  170  167 ] final   14.03 input   60.00 | X-H torsion
[ 3576  185  184  181 ] final   12.93 input   60.00 | X-H torsion
[ 3523  346  345  342 ] final  105.06 input   60.01 | X-H torsion
[ 3515  339  338  335 ] final  -93.00 input   60.00 | X-H torsion
[ 3663  154  153  150 ] final  160.18 input   60.00 | X-H torsion
[ 4280 1130 1129 1126 ] final   28.29 input   60.00 | X-H torsion

> <Gold.Protein.ActiveResidues>
 VAL20   THR21   CYS22   GLY23   THR24   THR25   THR26   LEU27   ASN28   PRO39  
 ARG40   HIS41   VAL42   CYS44   THR45   SER46   ASP48   MET49   LEU50   PRO52  
 TYR54   TYR118  ASN119  ILE136  GLY138  SER139  PHE140  LEU141  ASN142  GLY143 
 SER144  CYS145  GLY146  SER147  TYR161  HIS163  HIS164  MET165  GLU166  LEU167 
 PRO168  THR169  GLY170  VAL171  HIS172  ALA173  PHE181  PHE185  VAL186  ASP187 
 ARG188  GLN189  THR190  ALA191  GLN192  ALA193 

> <Gold.Protein.RotatedAtoms>
  -14.9510   18.1850   74.9429 H   0  0  0  0  0  0  0  0  0  0  0  0  # atno 3372 bound_to 414 
   -2.9178   20.6556   75.5100 H   0  0  0  0  0  0  0  0  0  0  0  0  # atno 3515 bound_to 339 
   -2.1714   18.3164   73.1601 H   0  0  0  0  0  0  0  0  0  0  0  0  # atno 3523 bound_to 346 
   -8.8098   25.9346   63.9728 H   0  0  0  0  0  0  0  0  0  0  0  0  # atno 3576 bound_to 185 
   -7.0695   29.8094   65.0284 H   0  0  0  0  0  0  0  0  0  0  0  0  # atno 3663 bound_to 154 
   -3.5561   24.3779   72.0819 H   0  0  0  0  0  0  0  0  0  0  0  0  # atno 3793 bound_to 171 
   -7.3952   23.6647   72.5139 H   0  0  0  0  0  0  0  0  0  0  0  0  # atno 3800 bound_to 178 
  -15.0257    9.0571   77.4453 H   0  0  0  0  0  0  0  0  0  0  0  0  # atno 3973 bound_to 1471
  -20.4194   13.6424   64.5593 H   0  0  0  0  0  0  0  0  0  0  0  0  # atno 4183 bound_to 1244
  -13.7147   15.2689   60.7889 H   0  0  0  0  0  0  0  0  0  0  0  0  # atno 4268 bound_to 1114
  -15.8519   20.1881   59.4252 H   0  0  0  0  0  0  0  0  0  0  0  0  # atno 4280 bound_to 1130
  -12.1802   15.4302   57.0722 H   0  0  0  0  0  0  0  0  0  0  0  0  # atno 4409 bound_to 924 
  -15.6819    8.0531   78.5450 LP  0  0  0  0  0  0  0  0  0  0  0  0  # atno 4696 bound_to 1471
  -15.3289    7.5090   77.0463 LP  0  0  0  0  0  0  0  0  0  0  0  0  # atno 4697 bound_to 1471
  -15.2885   16.9860   75.9900 LP  0  0  0  0  0  0  0  0  0  0  0  0  # atno 4731 bound_to 414 
  -13.8548   17.7637   76.0693 LP  0  0  0  0  0  0  0  0  0  0  0  0  # atno 4732 bound_to 414 
  -13.8072   16.4180   61.9373 LP  0  0  0  0  0  0  0  0  0  0  0  0  # atno 4733 bound_to 1114
  -12.3896   15.6607   61.6482 LP  0  0  0  0  0  0  0  0  0  0  0  0  # atno 4734 bound_to 1114
  -10.9144   15.0648   58.0273 LP  0  0  0  0  0  0  0  0  0  0  0  0  # atno 4763 bound_to 924 
  -10.7637   14.9899   56.4030 LP  0  0  0  0  0  0  0  0  0  0  0  0  # atno 4764 bound_to 924 
  -19.9517   13.4307   63.0152 LP  0  0  0  0  0  0  0  0  0  0  0  0  # atno 4771 bound_to 1244
  -20.9957   12.3822   63.7062 LP  0  0  0  0  0  0  0  0  0  0  0  0  # atno 4772 bound_to 1244
   -6.0636   23.4930   71.5945 LP  0  0  0  0  0  0  0  0  0  0  0  0  # atno 4775 bound_to 178 
   -7.1531   22.2806   71.6932 LP  0  0  0  0  0  0  0  0  0  0  0  0  # atno 4776 bound_to 178 
   -2.1324   24.7808   72.7590 LP  0  0  0  0  0  0  0  0  0  0  0  0  # atno 4779 bound_to 171 
   -2.2666   23.4037   71.8918 LP  0  0  0  0  0  0  0  0  0  0  0  0  # atno 4780 bound_to 171 
   -7.6597   25.1602   63.1210 LP  0  0  0  0  0  0  0  0  0  0  0  0  # atno 4783 bound_to 185 
   -7.4760   26.7379   63.5000 LP  0  0  0  0  0  0  0  0  0  0  0  0  # atno 4784 bound_to 185 
   -3.6561   17.7369   72.8319 LP  0  0  0  0  0  0  0  0  0  0  0  0  # atno 4785 bound_to 346 
   -2.3403   16.7987   72.5978 LP  0  0  0  0  0  0  0  0  0  0  0  0  # atno 4786 bound_to 346 
   -2.8785   22.2465   75.1698 LP  0  0  0  0  0  0  0  0  0  0  0  0  # atno 4787 bound_to 339 
   -3.6737   21.2168   74.1828 LP  0  0  0  0  0  0  0  0  0  0  0  0  # atno 4788 bound_to 339 
   -8.5761   29.2137   65.1817 LP  0  0  0  0  0  0  0  0  0  0  0  0  # atno 4797 bound_to 154 
   -7.2846   28.2704   65.5113 LP  0  0  0  0  0  0  0  0  0  0  0  0  # atno 4798 bound_to 154 

$$$$
