unknown|prepared_Mpro-x0874|sdf|1|dock3
  -GOLD-   5 72214353D 1   1.00000     0.00000

 26 27  0  0  0  0  0  0  0  0  1 V2000
  -11.9753   13.9522   68.1628 O   0  0  0  0  0  0  0  0  0  0  0  0
  -11.1285   13.7197   69.0450 C   0  0  0  0  0  0  0  0  0  0  0  0
  -10.2423   14.7459   69.5861 C   0  0  2  0  0  0  0  0  0  0  0  0
  -10.8873   15.9048   70.2659 C   0  0  2  0  0  0  0  0  0  0  0  0
  -11.9184   15.5067   71.2940 C   0  0  0  0  0  0  0  0  0  0  0  0
  -13.1157   14.9886   70.9009 C   0  0  0  0  0  0  0  0  0  0  0  0
  -13.9114   14.6779   72.3739 S   0  0  0  0  0  0  0  0  0  0  0  0
  -12.7095   15.2111   73.4549 C   0  0  0  0  0  0  0  0  0  0  0  0
  -11.6997   15.6253   72.6236 C   0  0  0  0  0  0  0  0  0  0  0  0
  -11.4311   16.7384   69.1672 C   0  0  0  0  0  0  0  0  0  0  0  0
  -10.2360   16.7548   68.2037 C   0  0  0  0  0  0  0  0  0  0  0  0
   -9.5636   15.4217   68.3932 C   0  0  0  0  0  0  0  0  0  0  0  0
  -11.0125   12.3991   69.5538 N   0  0  0  0  0  0  0  0  0  0  0  0
   -9.4608   14.3219   70.2688 H   0  0  0  0  0  0  0  0  0  0  0  0
  -10.0654   16.4381   70.8033 H   0  0  0  0  0  0  0  0  0  0  0  0
  -13.4718   14.8166   69.8676 H   0  0  0  0  0  0  0  0  0  0  0  0
  -12.7280   15.2248   74.5600 H   0  0  0  0  0  0  0  0  0  0  0  0
  -10.7674   16.0199   73.1003 H   0  0  0  0  0  0  0  0  0  0  0  0
  -12.3213   16.3335   68.6906 H   0  0  0  0  0  0  0  0  0  0  0  0
  -11.6729   17.7706   69.5005 H   0  0  0  0  0  0  0  0  0  0  0  0
  -10.5752   16.9141   67.1593 H   0  0  0  0  0  0  0  0  0  0  0  0
   -9.5434   17.5540   68.5448 H   0  0  0  0  0  0  0  0  0  0  0  0
   -8.4930   15.5222   68.6536 H   0  0  0  0  0  0  0  0  0  0  0  0
   -9.6623   14.7826   67.4665 H   0  0  0  0  0  0  0  0  0  0  0  0
  -11.6112   11.5989   69.2204 H   0  0  0  0  0  0  0  0  0  0  0  0
  -10.3184   12.1364   70.2988 H   0  0  0  0  0  0  0  0  0  0  0  0
  1  2  2  0  0  0  0
  2  3  1  0  0  0  0
  3  4  1  0  0  0  0
  4  5  1  0  0  0  0
  5  6  2  0  0  0  0
  6  7  1  0  0  0  0
  7  8  1  0  0  0  0
  8  9  2  0  0  0  0
  4 10  1  0  0  0  0
 10 11  1  0  0  0  0
 11 12  1  0  0  0  0
  2 13  1  0  0  0  0
 12  3  1  0  0  0  0
  9  5  1  0  0  0  0
  3 14  1  0  0  0  0
  4 15  1  0  0  0  0
  6 16  1  0  0  0  0
  8 17  1  0  0  0  0
  9 18  1  0  0  0  0
 10 19  1  0  0  0  0
 10 20  1  0  0  0  0
 11 21  1  0  0  0  0
 11 22  1  0  0  0  0
 12 23  1  0  0  0  0
 12 24  1  0  0  0  0
 13 25  1  0  0  0  0
 13 26  1  0  0  0  0
M  END
> <Gold.Version>
2022.1.0

> <Gold.Id.Protein>
6LU7|6LU7_protein|mol2

> <Gold.PLP.Fitness>
38.3176

> <Gold.PLP.PLP>
-33.0386

> <Gold.PLP.part.hbond>
-1.0000

> <Gold.PLP.part.metal>
0.0000

> <Gold.PLP.part.buried>
-1.0197

> <Gold.PLP.part.nonpolar>
-31.5577

> <Gold.PLP.part.repulsive>
0.1078

> <Gold.PLP.ligand.clash>
0.0000

> <Gold.PLP.ligand.torsion>
0.3247

> <Gold.PLP.Chemscore.Hbond>
0.9600

> <Gold.PLP.Chemscore.CHOScore>
1.0000

> <Gold.PLP.Chemscore.Metal>
0.0000

> <Gold.Chemscore.Hbonds>
donor molecule, donor type, donor heavy atom, donor atom, acceptor molecule, acceptor atom, score
      L1  H    13    26       P1  1464  0.96
      L1  C     6    16       P1  1266  1.00

> <Gold.PLP.Chemscore.Internal.Correction>
0.0483

> <Gold.Protein.RotatedTorsions>
[ 3973 1471 1470 1467 ] final   68.79 input   60.00 | X-H torsion
[ 3372  414  413  411 ] final  -43.35 input   60.00 | X-H torsion
[ 4268 1114 1113 1110 ] final -167.82 input   59.99 | X-H torsion
[ 4409  924  923  921 ] final  171.33 input   59.99 | X-H torsion
[ 4183 1244 1243 1241 ] final  -29.16 input   59.99 | X-H torsion
[ 3800  178  177  174 ] final   -3.35 input   60.00 | X-H torsion
[ 3793  171  170  167 ] final  110.78 input   60.00 | X-H torsion
[ 3576  185  184  181 ] final  152.21 input   60.00 | X-H torsion
[ 3523  346  345  342 ] final  154.84 input   60.01 | X-H torsion
[ 3515  339  338  335 ] final  121.25 input   60.00 | X-H torsion
[ 3663  154  153  150 ] final   13.22 input   60.00 | X-H torsion
[ 4280 1130 1129 1126 ] final  119.63 input   60.00 | X-H torsion

> <Gold.Protein.ActiveResidues>
 VAL20   THR21   CYS22   GLY23   THR24   THR25   THR26   LEU27   ASN28   PRO39  
 ARG40   HIS41   VAL42   CYS44   THR45   SER46   ASP48   MET49   LEU50   PRO52  
 TYR54   TYR118  ASN119  ILE136  GLY138  SER139  PHE140  LEU141  ASN142  GLY143 
 SER144  CYS145  GLY146  SER147  TYR161  HIS163  HIS164  MET165  GLU166  LEU167 
 PRO168  THR169  GLY170  VAL171  HIS172  ALA173  PHE181  PHE185  VAL186  ASP187 
 ARG188  GLN189  THR190  ALA191  GLN192  ALA193 

> <Gold.Protein.RotatedAtoms>
  -14.9129   18.2050   74.9457 H   0  0  0  0  0  0  0  0  0  0  0  0  # atno 3372 bound_to 414 
   -3.0990   22.2954   74.8170 H   0  0  0  0  0  0  0  0  0  0  0  0  # atno 3515 bound_to 339 
   -1.7902   17.6582   72.9532 H   0  0  0  0  0  0  0  0  0  0  0  0  # atno 3523 bound_to 346 
   -7.2877   26.5408   63.3426 H   0  0  0  0  0  0  0  0  0  0  0  0  # atno 3576 bound_to 185 
   -8.5258   28.8002   65.3169 H   0  0  0  0  0  0  0  0  0  0  0  0  # atno 3663 bound_to 154 
   -2.6238   23.3824   71.7677 H   0  0  0  0  0  0  0  0  0  0  0  0  # atno 3793 bound_to 171 
   -6.0638   23.2496   71.4737 H   0  0  0  0  0  0  0  0  0  0  0  0  # atno 3800 bound_to 178 
  -15.4627    7.3519   77.3192 H   0  0  0  0  0  0  0  0  0  0  0  0  # atno 3973 bound_to 1471
  -20.8251   13.1219   64.6217 H   0  0  0  0  0  0  0  0  0  0  0  0  # atno 4183 bound_to 1244
  -13.2076   15.1154   60.8058 H   0  0  0  0  0  0  0  0  0  0  0  0  # atno 4268 bound_to 1114
  -15.5406   18.8869   59.3635 H   0  0  0  0  0  0  0  0  0  0  0  0  # atno 4280 bound_to 1130
  -10.7340   15.0107   57.9064 H   0  0  0  0  0  0  0  0  0  0  0  0  # atno 4409 bound_to 924 
  -14.9738    8.8946   77.1487 LP  0  0  0  0  0  0  0  0  0  0  0  0  # atno 4696 bound_to 1471
  -15.5969    8.3848   78.5695 LP  0  0  0  0  0  0  0  0  0  0  0  0  # atno 4697 bound_to 1471
  -15.3170   16.9980   75.9596 LP  0  0  0  0  0  0  0  0  0  0  0  0  # atno 4731 bound_to 414 
  -13.8646   17.7317   76.0969 LP  0  0  0  0  0  0  0  0  0  0  0  0  # atno 4732 bound_to 414 
  -14.1433   16.1914   61.5899 LP  0  0  0  0  0  0  0  0  0  0  0  0  # atno 4733 bound_to 1114
  -12.5643   16.0420   61.9786 LP  0  0  0  0  0  0  0  0  0  0  0  0  # atno 4734 bound_to 1114
  -10.9524   15.0446   56.2942 LP  0  0  0  0  0  0  0  0  0  0  0  0  # atno 4763 bound_to 924 
  -12.1822   15.4326   57.2960 LP  0  0  0  0  0  0  0  0  0  0  0  0  # atno 4764 bound_to 924 
  -19.8568   13.8436   63.5311 LP  0  0  0  0  0  0  0  0  0  0  0  0  # atno 4771 bound_to 1244
  -20.6821   12.4936   63.1275 LP  0  0  0  0  0  0  0  0  0  0  0  0  # atno 4772 bound_to 1244
   -7.3617   22.3456   71.8561 LP  0  0  0  0  0  0  0  0  0  0  0  0  # atno 4775 bound_to 178 
   -7.1959   23.8459   72.4791 LP  0  0  0  0  0  0  0  0  0  0  0  0  # atno 4776 bound_to 178 
   -3.4587   24.6765   72.2934 LP  0  0  0  0  0  0  0  0  0  0  0  0  # atno 4779 bound_to 171 
   -1.8793   24.5106   72.6738 LP  0  0  0  0  0  0  0  0  0  0  0  0  # atno 4780 bound_to 171 
   -8.7350   26.2365   64.0213 LP  0  0  0  0  0  0  0  0  0  0  0  0  # atno 4783 bound_to 185 
   -7.9335   25.0511   63.2344 LP  0  0  0  0  0  0  0  0  0  0  0  0  # atno 4784 bound_to 185 
   -3.2486   18.3669   73.0908 LP  0  0  0  0  0  0  0  0  0  0  0  0  # atno 4785 bound_to 346 
   -3.1317   16.8315   72.5472 LP  0  0  0  0  0  0  0  0  0  0  0  0  # atno 4786 bound_to 346 
   -3.6311   20.8317   74.3455 LP  0  0  0  0  0  0  0  0  0  0  0  0  # atno 4787 bound_to 339 
   -2.7386   20.9802   75.7049 LP  0  0  0  0  0  0  0  0  0  0  0  0  # atno 4788 bound_to 339 
   -6.9280   28.5175   65.4407 LP  0  0  0  0  0  0  0  0  0  0  0  0  # atno 4797 bound_to 154 
   -7.4661   29.9830   64.9618 LP  0  0  0  0  0  0  0  0  0  0  0  0  # atno 4798 bound_to 154 

$$$$
