unknown|prepared_Mpro-x0426|sdf|1|dock1
  -GOLD-   5 72214353D 1   1.00000     0.00000

 31 32  0  0  0  0  0  0  0  0  1 V2000
  -13.2626   13.1582   71.8979 F   0  0  0  0  0  0  0  0  0  0  0  0
  -12.7922   14.3741   72.2666 C   0  0  0  0  0  0  0  0  0  0  0  0
  -13.0290   14.6980   73.5982 C   0  0  0  0  0  0  0  0  0  0  0  0
  -12.5990   15.8958   74.0751 C   0  0  0  0  0  0  0  0  0  0  0  0
  -11.9405   16.7646   73.2396 C   0  0  0  0  0  0  0  0  0  0  0  0
  -11.7150   16.4271   71.9239 C   0  0  0  0  0  0  0  0  0  0  0  0
  -12.1435   15.2049   71.4028 C   0  0  0  0  0  0  0  0  0  0  0  0
  -11.8920   14.8865   70.0305 C   0  0  0  0  0  0  0  0  0  0  0  0
  -11.5840   15.8544   69.2397 O   0  0  0  0  0  0  0  0  0  0  0  0
  -11.9350   13.6203   69.3989 N   0  0  0  0  0  0  0  0  0  0  0  0
  -11.6518   13.4645   67.9823 C   0  0  0  0  0  0  0  0  0  0  0  0
  -11.7029   12.0553   67.4930 C   0  0  0  0  0  0  0  0  0  0  0  0
  -11.5577   11.9973   66.0184 C   0  0  0  0  0  0  0  0  0  0  0  0
  -10.5655   11.2869   65.3999 C   0  0  0  0  0  0  0  0  0  0  0  0
  -10.4875   11.2782   64.0256 C   0  0  0  0  0  0  0  0  0  0  0  0
  -11.3757   11.9602   63.2861 N   0  0  0  0  0  0  0  0  0  0  0  0
  -12.3604   12.6671   63.8492 C   0  0  0  0  0  0  0  0  0  0  0  0
  -12.4568   12.6887   65.2388 C   0  0  0  0  0  0  0  0  0  0  0  0
  -13.5543   14.0025   74.2609 H   0  0  0  0  0  0  0  0  0  0  0  0
  -12.7867   16.1458   75.1198 H   0  0  0  0  0  0  0  0  0  0  0  0
  -11.5938   17.7190   73.6055 H   0  0  0  0  0  0  0  0  0  0  0  0
  -11.1921   17.1487   71.3122 H   0  0  0  0  0  0  0  0  0  0  0  0
  -12.1768   12.7947   69.9802 H   0  0  0  0  0  0  0  0  0  0  0  0
  -10.6313   13.8494   67.7918 H   0  0  0  0  0  0  0  0  0  0  0  0
  -12.3302   14.1021   67.3611 H   0  0  0  0  0  0  0  0  0  0  0  0
  -12.7126   11.6392   67.7346 H   0  0  0  0  0  0  0  0  0  0  0  0
  -10.9817   11.3720   67.9881 H   0  0  0  0  0  0  0  0  0  0  0  0
   -9.8313   10.7227   65.9847 H   0  0  0  0  0  0  0  0  0  0  0  0
   -9.6792   10.6983   63.5571 H   0  0  0  0  0  0  0  0  0  0  0  0
  -13.0963   13.2302   63.2887 H   0  0  0  0  0  0  0  0  0  0  0  0
  -13.2627   13.2677   65.6846 H   0  0  0  0  0  0  0  0  0  0  0  0
  1  2  1  0  0  0  0
  2  3  2  0  0  0  0
  3  4  1  0  0  0  0
  4  5  2  0  0  0  0
  5  6  1  0  0  0  0
  6  7  2  0  0  0  0
  7  8  1  0  0  0  0
  8  9  2  0  0  0  0
  8 10  1  0  0  0  0
 10 11  1  0  0  0  0
 11 12  1  0  0  0  0
 12 13  1  0  0  0  0
 13 14  2  0  0  0  0
 14 15  1  0  0  0  0
 15 16  2  0  0  0  0
 16 17  1  0  0  0  0
 17 18  2  0  0  0  0
  2  7  1  0  0  0  0
 13 18  1  0  0  0  0
  3 19  1  0  0  0  0
  4 20  1  0  0  0  0
  5 21  1  0  0  0  0
  6 22  1  0  0  0  0
 10 23  1  0  0  0  0
 11 24  1  0  0  0  0
 11 25  1  0  0  0  0
 12 26  1  0  0  0  0
 12 27  1  0  0  0  0
 14 28  1  0  0  0  0
 15 29  1  0  0  0  0
 17 30  1  0  0  0  0
 18 31  1  0  0  0  0
M  END
> <Gold.Version>
2022.1.0

> <Gold.Id.Protein>
6LU7|6LU7_protein|mol2

> <Gold.PLP.Fitness>
59.8075

> <Gold.PLP.PLP>
-56.9954

> <Gold.PLP.part.hbond>
0.0000

> <Gold.PLP.part.metal>
0.0000

> <Gold.PLP.part.buried>
-9.2546

> <Gold.PLP.part.nonpolar>
-50.0535

> <Gold.PLP.part.repulsive>
0.4551

> <Gold.PLP.ligand.clash>
0.0000

> <Gold.PLP.ligand.torsion>
0.1473

> <Gold.PLP.Chemscore.Hbond>
0.0000

> <Gold.PLP.Chemscore.CHOScore>
1.0000

> <Gold.PLP.Chemscore.Metal>
0.0000

> <Gold.Chemscore.Hbonds>
donor molecule, donor type, donor heavy atom, donor atom, acceptor molecule, acceptor atom, score
      L1  C    17    30       P1  1262  1.00

> <Gold.PLP.Chemscore.Internal.Correction>
0.1067

> <Gold.Protein.RotatedTorsions>
[ 3973 1471 1470 1467 ] final   73.34 input   60.00 | X-H torsion
[ 3372  414  413  411 ] final  177.19 input   60.00 | X-H torsion
[ 4268 1114 1113 1110 ] final -124.09 input   59.99 | X-H torsion
[ 4409  924  923  921 ] final   69.59 input   59.99 | X-H torsion
[ 4183 1244 1243 1241 ] final -132.68 input   59.99 | X-H torsion
[ 3800  178  177  174 ] final -152.02 input   60.00 | X-H torsion
[ 3793  171  170  167 ] final -124.86 input   60.00 | X-H torsion
[ 3576  185  184  181 ] final   73.40 input   60.00 | X-H torsion
[ 3523  346  345  342 ] final  163.32 input   60.01 | X-H torsion
[ 3515  339  338  335 ] final  -67.21 input   60.00 | X-H torsion
[ 3663  154  153  150 ] final    2.74 input   60.00 | X-H torsion
[ 4280 1130 1129 1126 ] final  -83.75 input   60.00 | X-H torsion

> <Gold.Protein.ActiveResidues>
 VAL20   THR21   CYS22   GLY23   THR24   THR25   THR26   LEU27   ASN28   PRO39  
 ARG40   HIS41   VAL42   CYS44   THR45   SER46   ASP48   MET49   LEU50   PRO52  
 TYR54   TYR118  ASN119  ILE136  GLY138  SER139  PHE140  LEU141  ASN142  GLY143 
 SER144  CYS145  GLY146  SER147  TYR161  HIS163  HIS164  MET165  GLU166  LEU167 
 PRO168  THR169  GLY170  VAL171  HIS172  ALA173  PHE181  PHE185  VAL186  ASP187 
 ARG188  GLN189  THR190  ALA191  GLN192  ALA193 

> <Gold.Protein.RotatedAtoms>
  -15.0782   16.9500   76.1634 H   0  0  0  0  0  0  0  0  0  0  0  0  # atno 3372 bound_to 414 
   -3.1399   20.4701   75.2087 H   0  0  0  0  0  0  0  0  0  0  0  0  # atno 3515 bound_to 339 
   -1.7905   17.5281   72.9063 H   0  0  0  0  0  0  0  0  0  0  0  0  # atno 3523 bound_to 346 
   -8.2988   26.7263   63.9391 H   0  0  0  0  0  0  0  0  0  0  0  0  # atno 3576 bound_to 185 
   -8.4549   28.6523   65.3656 H   0  0  0  0  0  0  0  0  0  0  0  0  # atno 3663 bound_to 154 
   -1.9228   24.5652   72.6906 H   0  0  0  0  0  0  0  0  0  0  0  0  # atno 3793 bound_to 171 
   -7.6130   22.6138   72.1416 H   0  0  0  0  0  0  0  0  0  0  0  0  # atno 3800 bound_to 178 
  -15.4907    7.3315   77.3849 H   0  0  0  0  0  0  0  0  0  0  0  0  # atno 3973 bound_to 1471
  -19.9106   13.9138   63.7856 H   0  0  0  0  0  0  0  0  0  0  0  0  # atno 4183 bound_to 1244
  -12.6088   15.2412   61.1400 H   0  0  0  0  0  0  0  0  0  0  0  0  # atno 4268 bound_to 1114
  -16.4295   19.7918   58.0396 H   0  0  0  0  0  0  0  0  0  0  0  0  # atno 4280 bound_to 1130
  -10.7102   14.9771   56.4546 H   0  0  0  0  0  0  0  0  0  0  0  0  # atno 4409 bound_to 924 
  -14.9690    8.8449   77.0930 LP  0  0  0  0  0  0  0  0  0  0  0  0  # atno 4696 bound_to 1471
  -15.5736    8.4551   78.5590 LP  0  0  0  0  0  0  0  0  0  0  0  0  # atno 4697 bound_to 1471
  -13.8346   17.9594   75.8759 LP  0  0  0  0  0  0  0  0  0  0  0  0  # atno 4731 bound_to 414 
  -15.1806   18.0341   74.9542 LP  0  0  0  0  0  0  0  0  0  0  0  0  # atno 4732 bound_to 414 
  -14.1675   15.7052   61.0838 LP  0  0  0  0  0  0  0  0  0  0  0  0  # atno 4733 bound_to 1114
  -13.1431   16.4014   62.1481 LP  0  0  0  0  0  0  0  0  0  0  0  0  # atno 4734 bound_to 1114
  -12.1773   15.4256   56.9969 LP  0  0  0  0  0  0  0  0  0  0  0  0  # atno 4763 bound_to 924 
  -10.9813   15.0854   58.0555 LP  0  0  0  0  0  0  0  0  0  0  0  0  # atno 4764 bound_to 924 
  -20.5140   12.6391   62.9738 LP  0  0  0  0  0  0  0  0  0  0  0  0  # atno 4771 bound_to 1244
  -20.9459   12.9005   64.5268 LP  0  0  0  0  0  0  0  0  0  0  0  0  # atno 4772 bound_to 1244
   -6.7946   24.0106   72.3061 LP  0  0  0  0  0  0  0  0  0  0  0  0  # atno 4775 bound_to 178 
   -6.2028   22.8212   71.3565 LP  0  0  0  0  0  0  0  0  0  0  0  0  # atno 4776 bound_to 178 
   -2.5549   23.3706   71.7843 LP  0  0  0  0  0  0  0  0  0  0  0  0  # atno 4779 bound_to 171 
   -3.4891   24.6252   72.2534 LP  0  0  0  0  0  0  0  0  0  0  0  0  # atno 4780 bound_to 171 
   -8.4978   25.1546   63.5673 LP  0  0  0  0  0  0  0  0  0  0  0  0  # atno 4783 bound_to 185 
   -7.1524   25.9461   63.0876 LP  0  0  0  0  0  0  0  0  0  0  0  0  # atno 4784 bound_to 185 
   -3.1281   18.4291   73.1228 LP  0  0  0  0  0  0  0  0  0  0  0  0  # atno 4785 bound_to 346 
   -3.2518   16.9003   72.5625 LP  0  0  0  0  0  0  0  0  0  0  0  0  # atno 4786 bound_to 346 
   -2.7153   22.0170   75.4824 LP  0  0  0  0  0  0  0  0  0  0  0  0  # atno 4787 bound_to 339 
   -3.6132   21.6331   74.1736 LP  0  0  0  0  0  0  0  0  0  0  0  0  # atno 4788 bound_to 339 
   -6.8280   28.6517   65.4002 LP  0  0  0  0  0  0  0  0  0  0  0  0  # atno 4797 bound_to 154 
   -7.6375   29.9977   64.9533 LP  0  0  0  0  0  0  0  0  0  0  0  0  # atno 4798 bound_to 154 

$$$$
