unknown|prepared_Mpro-x0387|sdf|1|dock3
  -GOLD-   5 72214353D 1   1.00000     0.00000

 28 29  0  0  0  0  0  0  0  0  1 V2000
  -10.8739   14.2539   64.3021 O   0  0  0  0  0  0  0  0  0  0  0  0
  -11.3317   14.8616   65.4735 C   0  0  0  0  0  0  0  0  0  0  0  0
  -11.9990   13.8888   66.4076 C   0  0  0  0  0  0  0  0  0  0  0  0
  -11.6232   14.0759   67.8448 C   0  0  0  0  0  0  0  0  0  0  0  0
  -11.4778   15.4255   68.2659 N   0  0  0  0  0  0  0  0  0  0  0  0
  -10.7802   15.4731   69.5353 C   0  0  0  0  0  0  0  0  0  0  0  0
  -11.7552   15.2693   70.6863 C   0  0  0  0  0  0  0  0  0  0  0  0
  -11.4770   15.5547   71.9606 C   0  0  0  0  0  0  0  0  0  0  0  0
  -12.4452   15.3233   72.8995 C   0  0  0  0  0  0  0  0  0  0  0  0
  -13.7287   14.7069   71.9618 S   0  0  0  0  0  0  0  0  0  0  0  0
  -13.0046   14.7613   70.4217 C   0  0  0  0  0  0  0  0  0  0  0  0
  -10.8029   16.2873   67.3533 C   0  0  0  0  0  0  0  0  0  0  0  0
  -10.1612   15.4752   66.2444 C   0  0  0  0  0  0  0  0  0  0  0  0
  -10.8499   14.9385   63.5860 H   0  0  0  0  0  0  0  0  0  0  0  0
  -12.0416   15.6670   65.2330 H   0  0  0  0  0  0  0  0  0  0  0  0
  -13.1146   13.8913   66.2847 H   0  0  0  0  0  0  0  0  0  0  0  0
  -11.6676   12.8746   66.0963 H   0  0  0  0  0  0  0  0  0  0  0  0
  -10.6342   13.5663   67.9904 H   0  0  0  0  0  0  0  0  0  0  0  0
  -12.4130   13.5977   68.4619 H   0  0  0  0  0  0  0  0  0  0  0  0
  -10.3000   16.4758   69.6355 H   0  0  0  0  0  0  0  0  0  0  0  0
   -9.9701   14.7278   69.5940 H   0  0  0  0  0  0  0  0  0  0  0  0
  -10.4923   15.9702   72.2754 H   0  0  0  0  0  0  0  0  0  0  0  0
  -12.3805   15.5021   73.9891 H   0  0  0  0  0  0  0  0  0  0  0  0
  -13.4583   14.4560   69.4741 H   0  0  0  0  0  0  0  0  0  0  0  0
   -9.9876   16.8877   67.8301 H   0  0  0  0  0  0  0  0  0  0  0  0
  -11.5075   16.9956   66.8404 H   0  0  0  0  0  0  0  0  0  0  0  0
   -9.5571   14.6351   66.6247 H   0  0  0  0  0  0  0  0  0  0  0  0
   -9.5826   16.1244   65.5538 H   0  0  0  0  0  0  0  0  0  0  0  0
  1  2  1  0  0  0  0
  2  3  1  0  0  0  0
  3  4  1  0  0  0  0
  4  5  1  0  0  0  0
  5  6  1  0  0  0  0
  6  7  1  0  0  0  0
  7  8  1  0  0  0  0
  8  9  2  0  0  0  0
  9 10  1  0  0  0  0
 10 11  1  0  0  0  0
  5 12  1  0  0  0  0
 12 13  1  0  0  0  0
 13  2  1  0  0  0  0
  7 11  2  0  0  0  0
  1 14  1  0  0  0  0
  2 15  1  0  0  0  0
  3 16  1  0  0  0  0
  3 17  1  0  0  0  0
  4 18  1  0  0  0  0
  4 19  1  0  0  0  0
  6 20  1  0  0  0  0
  6 21  1  0  0  0  0
  8 22  1  0  0  0  0
  9 23  1  0  0  0  0
 11 24  1  0  0  0  0
 12 25  1  0  0  0  0
 12 26  1  0  0  0  0
 13 27  1  0  0  0  0
 13 28  1  0  0  0  0
M  END
> <Gold.Version>
2022.1.0

> <Gold.Id.Protein>
6LU7|6LU7_protein|mol2

> <Gold.PLP.Fitness>
40.5437

> <Gold.PLP.PLP>
-36.0259

> <Gold.PLP.part.hbond>
-1.0000

> <Gold.PLP.part.metal>
0.0000

> <Gold.PLP.part.buried>
-4.4502

> <Gold.PLP.part.nonpolar>
-31.3176

> <Gold.PLP.part.repulsive>
0.1178

> <Gold.PLP.ligand.clash>
0.0000

> <Gold.PLP.ligand.torsion>
0.5338

> <Gold.PLP.Chemscore.Hbond>
0.8564

> <Gold.PLP.Chemscore.CHOScore>
1.0000

> <Gold.PLP.Chemscore.Metal>
0.0000

> <Gold.Chemscore.Hbonds>
donor molecule, donor type, donor heavy atom, donor atom, acceptor molecule, acceptor atom, score
      L1  H     1    14       P1  1092  0.86
      L1  C    11    24       P1  1266  1.00

> <Gold.PLP.Chemscore.Internal.Correction>
0.0161

> <Gold.Protein.RotatedTorsions>
[ 3973 1471 1470 1467 ] final   11.76 input   60.00 | X-H torsion
[ 3372  414  413  411 ] final  -62.86 input   60.00 | X-H torsion
[ 4268 1114 1113 1110 ] final -148.10 input   59.99 | X-H torsion
[ 4409  924  923  921 ] final   83.82 input   59.99 | X-H torsion
[ 4183 1244 1243 1241 ] final    7.68 input   59.99 | X-H torsion
[ 3800  178  177  174 ] final  -64.73 input   60.00 | X-H torsion
[ 3793  171  170  167 ] final -164.92 input   60.00 | X-H torsion
[ 3576  185  184  181 ] final   10.59 input   60.00 | X-H torsion
[ 3523  346  345  342 ] final  -59.24 input   60.01 | X-H torsion
[ 3515  339  338  335 ] final   21.38 input   60.00 | X-H torsion
[ 3663  154  153  150 ] final  154.49 input   60.00 | X-H torsion
[ 4280 1130 1129 1126 ] final -113.23 input   60.00 | X-H torsion

> <Gold.Protein.ActiveResidues>
 VAL20   THR21   CYS22   GLY23   THR24   THR25   THR26   LEU27   ASN28   PRO39  
 ARG40   HIS41   VAL42   CYS44   THR45   SER46   ASP48   MET49   LEU50   PRO52  
 TYR54   TYR118  ASN119  ILE136  GLY138  SER139  PHE140  LEU141  ASN142  GLY143 
 SER144  CYS145  GLY146  SER147  TYR161  HIS163  HIS164  MET165  GLU166  LEU167 
 PRO168  THR169  GLY170  VAL171  HIS172  ALA173  PHE181  PHE185  VAL186  ASP187 
 ARG188  GLN189  THR190  ALA191  GLN192  ALA193 

> <Gold.Protein.RotatedAtoms>
  -15.1787   18.0325   74.9608 H   0  0  0  0  0  0  0  0  0  0  0  0  # atno 3372 bound_to 414 
   -3.6715   21.1293   74.2124 H   0  0  0  0  0  0  0  0  0  0  0  0  # atno 3515 bound_to 339 
   -3.4551   17.0922   72.6181 H   0  0  0  0  0  0  0  0  0  0  0  0  # atno 3523 bound_to 346 
   -8.8134   25.8978   63.9635 H   0  0  0  0  0  0  0  0  0  0  0  0  # atno 3576 bound_to 185 
   -7.1456   29.8595   65.0108 H   0  0  0  0  0  0  0  0  0  0  0  0  # atno 3663 bound_to 154 
   -1.7496   24.0140   72.4124 H   0  0  0  0  0  0  0  0  0  0  0  0  # atno 3793 bound_to 171 
   -6.5687   22.4415   71.4000 H   0  0  0  0  0  0  0  0  0  0  0  0  # atno 3800 bound_to 178 
  -15.1086    7.9874   76.7998 H   0  0  0  0  0  0  0  0  0  0  0  0  # atno 3973 bound_to 1471
  -21.0352   12.6642   64.3112 H   0  0  0  0  0  0  0  0  0  0  0  0  # atno 4183 bound_to 1244
  -12.9079   15.1256   60.9190 H   0  0  0  0  0  0  0  0  0  0  0  0  # atno 4268 bound_to 1114
  -16.3465   19.3292   57.9614 H   0  0  0  0  0  0  0  0  0  0  0  0  # atno 4280 bound_to 1130
  -10.5594   14.9348   56.6256 H   0  0  0  0  0  0  0  0  0  0  0  0  # atno 4409 bound_to 924 
  -15.2068    9.0849   77.9973 LP  0  0  0  0  0  0  0  0  0  0  0  0  # atno 4696 bound_to 1471
  -15.7205    7.5546   78.2441 LP  0  0  0  0  0  0  0  0  0  0  0  0  # atno 4697 bound_to 1471
  -15.0792   16.9435   76.1659 LP  0  0  0  0  0  0  0  0  0  0  0  0  # atno 4731 bound_to 414 
  -13.8347   17.9600   75.8753 LP  0  0  0  0  0  0  0  0  0  0  0  0  # atno 4732 bound_to 414 
  -14.2194   15.9856   61.3531 LP  0  0  0  0  0  0  0  0  0  0  0  0  # atno 4733 bound_to 1114
  -12.7899   16.2375   62.1013 LP  0  0  0  0  0  0  0  0  0  0  0  0  # atno 4734 bound_to 1114
  -12.1111   15.4017   56.7743 LP  0  0  0  0  0  0  0  0  0  0  0  0  # atno 4763 bound_to 924 
  -11.1994   15.1519   58.1059 LP  0  0  0  0  0  0  0  0  0  0  0  0  # atno 4764 bound_to 924 
  -20.0260   13.9225   64.0969 LP  0  0  0  0  0  0  0  0  0  0  0  0  # atno 4771 bound_to 1244
  -20.3013   12.8755   62.8744 LP  0  0  0  0  0  0  0  0  0  0  0  0  # atno 4772 bound_to 1244
   -7.6835   23.0655   72.4080 LP  0  0  0  0  0  0  0  0  0  0  0  0  # atno 4775 bound_to 178 
   -6.3656   23.9398   72.0014 LP  0  0  0  0  0  0  0  0  0  0  0  0  # atno 4776 bound_to 178 
   -3.1619   23.5840   71.7279 LP  0  0  0  0  0  0  0  0  0  0  0  0  # atno 4779 bound_to 171 
   -3.0566   24.9670   72.5899 LP  0  0  0  0  0  0  0  0  0  0  0  0  # atno 4780 bound_to 171 
   -7.6284   25.1797   63.1102 LP  0  0  0  0  0  0  0  0  0  0  0  0  # atno 4783 bound_to 185 
   -7.5036   26.7555   63.5201 LP  0  0  0  0  0  0  0  0  0  0  0  0  # atno 4784 bound_to 185 
   -1.8483   17.2678   72.8056 LP  0  0  0  0  0  0  0  0  0  0  0  0  # atno 4785 bound_to 346 
   -2.8553   18.5006   73.1700 LP  0  0  0  0  0  0  0  0  0  0  0  0  # atno 4786 bound_to 346 
   -2.8703   20.7120   75.5658 LP  0  0  0  0  0  0  0  0  0  0  0  0  # atno 4787 bound_to 339 
   -2.9228   22.2743   75.0936 LP  0  0  0  0  0  0  0  0  0  0  0  0  # atno 4788 bound_to 339 
   -8.5840   29.1249   65.2098 LP  0  0  0  0  0  0  0  0  0  0  0  0  # atno 4797 bound_to 154 
   -7.2000   28.3087   65.5010 LP  0  0  0  0  0  0  0  0  0  0  0  0  # atno 4798 bound_to 154 

$$$$
