unknown|prepared_Mpro-x2193|sdf|1|dock4
  -GOLD-   5 72214353D 1   1.00000     0.00000

 32 33  0  0  0  0  0  0  0  0  1 V2000
  -10.1988   13.7919   64.9152 C   0  0  0  0  0  0  0  0  0  0  0  0
  -11.1289   15.2248   65.4211 S   0  0  0  0  0  0  0  0  0  0  0  0
  -12.4010   15.3217   64.6278 O   0  0  0  0  0  0  0  0  0  0  0  0
  -10.3041   16.4851   65.2026 O   0  0  0  0  0  0  0  0  0  0  0  0
  -11.4469   15.0729   67.1400 C   0  0  0  0  0  0  0  0  0  0  0  0
  -11.9993   13.9252   67.6644 C   0  0  0  0  0  0  0  0  0  0  0  0
  -12.2526   13.7968   69.0115 C   0  0  0  0  0  0  0  0  0  0  0  0
  -11.9654   14.8139   69.9080 C   0  0  0  0  0  0  0  0  0  0  0  0
  -11.4147   15.9619   69.3986 C   0  0  0  0  0  0  0  0  0  0  0  0
  -11.1592   16.0872   68.0266 C   0  0  0  0  0  0  0  0  0  0  0  0
  -12.2003   14.6904   71.2916 N   0  0  0  0  0  0  0  0  0  0  0  0
  -11.3973   15.4115   72.2399 C   0  0  0  0  0  0  0  0  0  0  0  0
  -12.3295   16.2234   73.1293 C   0  0  0  0  0  0  0  0  0  0  0  0
  -13.3266   15.3782   73.6990 N   0  0  0  0  0  0  0  0  0  0  0  0
  -14.1267   14.6970   72.6955 C   0  0  0  0  0  0  0  0  0  0  0  0
  -13.2375   13.8279   71.8269 C   0  0  0  0  0  0  0  0  0  0  0  0
  -10.8870   13.0718   64.3967 H   0  0  0  0  0  0  0  0  0  0  0  0
   -9.7336   13.2693   65.7681 H   0  0  0  0  0  0  0  0  0  0  0  0
   -9.4057   14.1170   64.2076 H   0  0  0  0  0  0  0  0  0  0  0  0
  -12.2311   13.1117   66.9620 H   0  0  0  0  0  0  0  0  0  0  0  0
  -12.6924   12.8744   69.3801 H   0  0  0  0  0  0  0  0  0  0  0  0
  -11.1705   16.7689   70.0746 H   0  0  0  0  0  0  0  0  0  0  0  0
  -10.7316   16.9933   67.6690 H   0  0  0  0  0  0  0  0  0  0  0  0
  -10.9483   14.6445   72.9268 H   0  0  0  0  0  0  0  0  0  0  0  0
  -10.6150   16.0377   71.8193 H   0  0  0  0  0  0  0  0  0  0  0  0
  -12.7417   17.0445   72.4992 H   0  0  0  0  0  0  0  0  0  0  0  0
  -11.7010   16.6160   73.9549 H   0  0  0  0  0  0  0  0  0  0  0  0
  -13.9724   15.8870   74.3137 H   0  0  0  0  0  0  0  0  0  0  0  0
  -14.8734   14.0803   73.2553 H   0  0  0  0  0  0  0  0  0  0  0  0
  -14.6064   15.4427   72.0299 H   0  0  0  0  0  0  0  0  0  0  0  0
  -13.8145   13.3488   71.0428 H   0  0  0  0  0  0  0  0  0  0  0  0
  -12.7331   13.0466   72.4579 H   0  0  0  0  0  0  0  0  0  0  0  0
  1  2  1  0  0  0  0
  2  3  2  0  0  0  0
  2  4  2  0  0  0  0
  2  5  1  0  0  0  0
  5  6  2  0  0  0  0
  6  7  1  0  0  0  0
  7  8  2  0  0  0  0
  8  9  1  0  0  0  0
  9 10  2  0  0  0  0
  8 11  1  0  0  0  0
 11 12  1  0  0  0  0
 12 13  1  0  0  0  0
 13 14  1  0  0  0  0
 14 15  1  0  0  0  0
 15 16  1  0  0  0  0
 10  5  1  0  0  0  0
 16 11  1  0  0  0  0
  1 17  1  0  0  0  0
  1 18  1  0  0  0  0
  1 19  1  0  0  0  0
  6 20  1  0  0  0  0
  7 21  1  0  0  0  0
  9 22  1  0  0  0  0
 10 23  1  0  0  0  0
 12 24  1  0  0  0  0
 12 25  1  0  0  0  0
 13 26  1  0  0  0  0
 13 27  1  0  0  0  0
 14 28  1  0  0  0  0
 15 29  1  0  0  0  0
 15 30  1  0  0  0  0
 16 31  1  0  0  0  0
 16 32  1  0  0  0  0
M  END
> <Gold.Version>
2022.1.0

> <Gold.Id.Protein>
6LU7|6LU7_protein|mol2

> <Gold.PLP.Fitness>
44.9869

> <Gold.PLP.PLP>
-41.5951

> <Gold.PLP.part.hbond>
-1.8706

> <Gold.PLP.part.metal>
0.0000

> <Gold.PLP.part.buried>
-5.0207

> <Gold.PLP.part.nonpolar>
-35.4897

> <Gold.PLP.part.repulsive>
0.2627

> <Gold.PLP.ligand.clash>
0.0000

> <Gold.PLP.ligand.torsion>
1.4626

> <Gold.PLP.Chemscore.Hbond>
1.3650

> <Gold.PLP.Chemscore.CHOScore>
0.0000

> <Gold.PLP.Chemscore.Metal>
0.0000

> <Gold.Chemscore.Hbonds>
donor molecule, donor type, donor heavy atom, donor atom, acceptor molecule, acceptor atom, score
      L1  H    14    28       P1  1441  0.37
      P1  H  1105  4261       L1     4  1.00

> <Gold.PLP.Chemscore.Internal.Correction>
2.2218

> <Gold.Protein.RotatedTorsions>
[ 3973 1471 1470 1467 ] final   12.90 input   60.00 | X-H torsion
[ 3372  414  413  411 ] final -145.78 input   60.00 | X-H torsion
[ 4268 1114 1113 1110 ] final  -56.44 input   59.99 | X-H torsion
[ 4409  924  923  921 ] final   18.38 input   59.99 | X-H torsion
[ 4183 1244 1243 1241 ] final -159.95 input   59.99 | X-H torsion
[ 3800  178  177  174 ] final   16.60 input   60.00 | X-H torsion
[ 3793  171  170  167 ] final  -72.49 input   60.00 | X-H torsion
[ 3576  185  184  181 ] final -105.75 input   60.00 | X-H torsion
[ 3523  346  345  342 ] final -173.45 input   60.01 | X-H torsion
[ 3515  339  338  335 ] final -100.08 input   60.00 | X-H torsion
[ 3663  154  153  150 ] final  -38.63 input   60.00 | X-H torsion
[ 4280 1130 1129 1126 ] final  169.93 input   60.00 | X-H torsion

> <Gold.Protein.ActiveResidues>
 VAL20   THR21   CYS22   GLY23   THR24   THR25   THR26   LEU27   ASN28   PRO39  
 ARG40   HIS41   VAL42   CYS44   THR45   SER46   ASP48   MET49   LEU50   PRO52  
 TYR54   TYR118  ASN119  ILE136  GLY138  SER139  PHE140  LEU141  ASN142  GLY143 
 SER144  CYS145  GLY146  SER147  TYR161  HIS163  HIS164  MET165  GLU166  LEU167 
 PRO168  THR169  GLY170  VAL171  HIS172  ALA173  PHE181  PHE185  VAL186  ASP187 
 ARG188  GLN189  THR190  ALA191  GLN192  ALA193 

> <Gold.Protein.RotatedAtoms>
  -15.4664   17.1164   75.7451 H   0  0  0  0  0  0  0  0  0  0  0  0  # atno 3372 bound_to 414 
   -2.8634   20.7339   75.5756 H   0  0  0  0  0  0  0  0  0  0  0  0  # atno 3515 bound_to 339 
   -1.8939   17.1897   72.7763 H   0  0  0  0  0  0  0  0  0  0  0  0  # atno 3523 bound_to 346 
   -7.6787   25.1547   63.1323 H   0  0  0  0  0  0  0  0  0  0  0  0  # atno 3576 bound_to 185 
   -7.9453   28.2540   65.5039 H   0  0  0  0  0  0  0  0  0  0  0  0  # atno 3663 bound_to 154 
   -2.6314   24.9881   72.7291 H   0  0  0  0  0  0  0  0  0  0  0  0  # atno 3793 bound_to 171 
   -6.0798   23.5369   71.6231 H   0  0  0  0  0  0  0  0  0  0  0  0  # atno 3800 bound_to 178 
  -15.1145    7.9700   76.8028 H   0  0  0  0  0  0  0  0  0  0  0  0  # atno 3973 bound_to 1471
  -19.8578   13.7606   63.3750 H   0  0  0  0  0  0  0  0  0  0  0  0  # atno 4183 bound_to 1244
  -12.4968   15.9458   61.8998 H   0  0  0  0  0  0  0  0  0  0  0  0  # atno 4268 bound_to 1114
  -15.8015   18.5881   58.6737 H   0  0  0  0  0  0  0  0  0  0  0  0  # atno 4280 bound_to 1130
  -11.4604   15.1988   56.2478 H   0  0  0  0  0  0  0  0  0  0  0  0  # atno 4409 bound_to 924 
  -15.1998    9.0897   77.9805 LP  0  0  0  0  0  0  0  0  0  0  0  0  # atno 4696 bound_to 1471
  -15.7216    7.5673   78.2579 LP  0  0  0  0  0  0  0  0  0  0  0  0  # atno 4697 bound_to 1471
  -13.9738   17.5170   76.2545 LP  0  0  0  0  0  0  0  0  0  0  0  0  # atno 4731 bound_to 414 
  -14.6504   18.3090   74.9969 LP  0  0  0  0  0  0  0  0  0  0  0  0  # atno 4732 bound_to 414 
  -13.3453   15.1296   60.7765 LP  0  0  0  0  0  0  0  0  0  0  0  0  # atno 4733 bound_to 1114
  -14.0781   16.2675   61.6902 LP  0  0  0  0  0  0  0  0  0  0  0  0  # atno 4734 bound_to 1114
  -11.9689   15.3773   57.7833 LP  0  0  0  0  0  0  0  0  0  0  0  0  # atno 4763 bound_to 924 
  -10.4342   14.9104   57.4774 LP  0  0  0  0  0  0  0  0  0  0  0  0  # atno 4764 bound_to 924 
  -20.7828   12.4271   63.2573 LP  0  0  0  0  0  0  0  0  0  0  0  0  # atno 4771 bound_to 1244
  -20.7301   13.2668   64.6569 LP  0  0  0  0  0  0  0  0  0  0  0  0  # atno 4772 bound_to 1244
   -7.1080   22.2762   71.6626 LP  0  0  0  0  0  0  0  0  0  0  0  0  # atno 4775 bound_to 178 
   -7.4334   23.6260   72.5221 LP  0  0  0  0  0  0  0  0  0  0  0  0  # atno 4776 bound_to 178 
   -1.8753   23.6620   72.1657 LP  0  0  0  0  0  0  0  0  0  0  0  0  # atno 4779 bound_to 171 
   -3.4550   23.9078   71.8332 LP  0  0  0  0  0  0  0  0  0  0  0  0  # atno 4780 bound_to 171 
   -7.4607   26.7274   63.4887 LP  0  0  0  0  0  0  0  0  0  0  0  0  # atno 4783 bound_to 185 
   -8.8141   25.9562   63.9788 LP  0  0  0  0  0  0  0  0  0  0  0  0  # atno 4784 bound_to 185 
   -2.7608   18.5065   73.1796 LP  0  0  0  0  0  0  0  0  0  0  0  0  # atno 4785 bound_to 346 
   -3.5150   17.1637   72.6366 LP  0  0  0  0  0  0  0  0  0  0  0  0  # atno 4786 bound_to 346 
   -2.9347   22.2801   75.0735 LP  0  0  0  0  0  0  0  0  0  0  0  0  # atno 4787 bound_to 339 
   -3.6723   21.1044   74.2131 LP  0  0  0  0  0  0  0  0  0  0  0  0  # atno 4788 bound_to 339 
   -6.7170   29.2782   65.2032 LP  0  0  0  0  0  0  0  0  0  0  0  0  # atno 4797 bound_to 154 
   -8.2616   29.7723   65.0109 LP  0  0  0  0  0  0  0  0  0  0  0  0  # atno 4798 bound_to 154 

$$$$
