unknown|prepared_Mpro-x0946|sdf|1|dock5
  -GOLD-   5 72214353D 1   1.00000     0.00000

 17 17  0  0  0  0  0  0  0  0  1 V2000
  -12.6005   15.8564   74.1837 Br  0  0  0  0  0  0  0  0  0  0  0  0
  -12.3608   15.0715   72.4519 C   0  0  0  0  0  0  0  0  0  0  0  0
  -13.0886   13.9634   72.0766 C   0  0  0  0  0  0  0  0  0  0  0  0
  -12.9318   13.3775   70.8266 C   0  0  0  0  0  0  0  0  0  0  0  0
  -12.0331   13.8916   69.9116 C   0  0  0  0  0  0  0  0  0  0  0  0
  -11.8023   13.1856   68.3239 S   0  0  0  0  0  0  0  0  0  0  0  0
  -12.5813   14.1733   67.1696 N   0  0  0  0  0  0  0  0  0  0  0  0
  -12.3002   11.7884   68.3523 O   0  0  0  0  0  0  0  0  0  0  0  0
  -10.3386   13.1565   68.0112 O   0  0  0  0  0  0  0  0  0  0  0  0
  -11.3075   15.0017   70.2941 C   0  0  0  0  0  0  0  0  0  0  0  0
  -11.4671   15.5829   71.5421 C   0  0  0  0  0  0  0  0  0  0  0  0
  -13.7965   13.5384   72.7653 H   0  0  0  0  0  0  0  0  0  0  0  0
  -13.4970   12.5124   70.5279 H   0  0  0  0  0  0  0  0  0  0  0  0
  -13.3365   14.7652   67.5426 H   0  0  0  0  0  0  0  0  0  0  0  0
  -12.8070   13.6908   66.2798 H   0  0  0  0  0  0  0  0  0  0  0  0
  -10.5948   15.4042   69.5600 H   0  0  0  0  0  0  0  0  0  0  0  0
  -10.8899   16.4492   71.8191 H   0  0  0  0  0  0  0  0  0  0  0  0
  1  2  1  0  0  0  0
  2  3  2  0  0  0  0
  3  4  1  0  0  0  0
  4  5  2  0  0  0  0
  5  6  1  0  0  0  0
  6  7  1  0  0  0  0
  6  8  2  0  0  0  0
  6  9  2  0  0  0  0
  5 10  1  0  0  0  0
 10 11  2  0  0  0  0
 11  2  1  0  0  0  0
  3 12  1  0  0  0  0
  4 13  1  0  0  0  0
  7 14  1  0  0  0  0
  7 15  1  0  0  0  0
 10 16  1  0  0  0  0
 11 17  1  0  0  0  0
M  END
> <Gold.Version>
2022.1.0

> <Gold.Id.Protein>
6LU7|6LU7_protein|mol2

> <Gold.PLP.Fitness>
36.0960

> <Gold.PLP.PLP>
-30.4738

> <Gold.PLP.part.hbond>
-1.9441

> <Gold.PLP.part.metal>
0.0000

> <Gold.PLP.part.buried>
-2.0530

> <Gold.PLP.part.nonpolar>
-27.3795

> <Gold.PLP.part.repulsive>
0.1608

> <Gold.PLP.ligand.clash>
0.0000

> <Gold.PLP.ligand.torsion>
1.1314

> <Gold.PLP.Chemscore.Hbond>
1.9100

> <Gold.PLP.Chemscore.CHOScore>
0.0000

> <Gold.PLP.Chemscore.Metal>
0.0000

> <Gold.Chemscore.Hbonds>
donor molecule, donor type, donor heavy atom, donor atom, acceptor molecule, acceptor atom, score
      L1  H     7    14       P1  1266  1.00
      P1  H  1281  4132       L1     8  0.91

> <Gold.PLP.Chemscore.Internal.Correction>
2.1550

> <Gold.Protein.RotatedTorsions>
[ 3973 1471 1470 1467 ] final -100.34 input   60.00 | X-H torsion
[ 3372  414  413  411 ] final  128.32 input   60.00 | X-H torsion
[ 4268 1114 1113 1110 ] final -154.89 input   59.99 | X-H torsion
[ 4409  924  923  921 ] final  -95.51 input   59.99 | X-H torsion
[ 4183 1244 1243 1241 ] final  -25.06 input   59.99 | X-H torsion
[ 3800  178  177  174 ] final -122.34 input   60.00 | X-H torsion
[ 3793  171  170  167 ] final  -19.52 input   60.00 | X-H torsion
[ 3576  185  184  181 ] final  156.47 input   60.00 | X-H torsion
[ 3523  346  345  342 ] final  -59.37 input   60.01 | X-H torsion
[ 3515  339  338  335 ] final -168.92 input   60.00 | X-H torsion
[ 3663  154  153  150 ] final   69.99 input   60.00 | X-H torsion
[ 4280 1130 1129 1126 ] final  -13.54 input   60.00 | X-H torsion

> <Gold.Protein.ActiveResidues>
 VAL20   THR21   CYS22   GLY23   THR24   THR25   THR26   LEU27   ASN28   PRO39  
 ARG40   HIS41   VAL42   CYS44   THR45   SER46   ASP48   MET49   LEU50   PRO52  
 TYR54   TYR118  ASN119  ILE136  GLY138  SER139  PHE140  LEU141  ASN142  GLY143 
 SER144  CYS145  GLY146  SER147  TYR161  HIS163  HIS164  MET165  GLU166  LEU167 
 PRO168  THR169  GLY170  VAL171  HIS172  ALA173  PHE181  PHE185  VAL186  ASP187 
 ARG188  GLN189  THR190  ALA191  GLN192  ALA193 

> <Gold.Protein.RotatedAtoms>
  -14.3673   17.1563   76.3915 H   0  0  0  0  0  0  0  0  0  0  0  0  # atno 3372 bound_to 414 
   -2.6569   21.7700   75.6398 H   0  0  0  0  0  0  0  0  0  0  0  0  # atno 3515 bound_to 339 
   -3.4538   17.0906   72.6176 H   0  0  0  0  0  0  0  0  0  0  0  0  # atno 3523 bound_to 346 
   -7.2556   26.4887   63.3096 H   0  0  0  0  0  0  0  0  0  0  0  0  # atno 3576 bound_to 185 
   -8.3844   29.6385   65.0531 H   0  0  0  0  0  0  0  0  0  0  0  0  # atno 3663 bound_to 154 
   -3.3632   24.7826   72.3834 H   0  0  0  0  0  0  0  0  0  0  0  0  # atno 3793 bound_to 171 
   -7.3478   22.3461   71.8447 H   0  0  0  0  0  0  0  0  0  0  0  0  # atno 3800 bound_to 178 
  -15.1588    9.1039   77.8783 H   0  0  0  0  0  0  0  0  0  0  0  0  # atno 3973 bound_to 1471
  -20.8580   13.0666   64.6030 H   0  0  0  0  0  0  0  0  0  0  0  0  # atno 4183 bound_to 1244
  -13.0075   15.1132   60.8721 H   0  0  0  0  0  0  0  0  0  0  0  0  # atno 4268 bound_to 1114
  -16.1762   20.4096   58.8842 H   0  0  0  0  0  0  0  0  0  0  0  0  # atno 4280 bound_to 1130
  -12.0223   15.3942   57.6999 H   0  0  0  0  0  0  0  0  0  0  0  0  # atno 4409 bound_to 924 
  -15.7247    7.6480   78.3344 LP  0  0  0  0  0  0  0  0  0  0  0  0  # atno 4696 bound_to 1471
  -15.1521    7.8670   76.8208 LP  0  0  0  0  0  0  0  0  0  0  0  0  # atno 4697 bound_to 1471
  -14.1740   18.3263   75.2771 LP  0  0  0  0  0  0  0  0  0  0  0  0  # atno 4731 bound_to 414 
  -15.5571   17.4594   75.3234 LP  0  0  0  0  0  0  0  0  0  0  0  0  # atno 4732 bound_to 414 
  -14.2051   16.0604   61.4346 LP  0  0  0  0  0  0  0  0  0  0  0  0  # atno 4733 bound_to 1114
  -12.7040   16.1752   62.0671 LP  0  0  0  0  0  0  0  0  0  0  0  0  # atno 4734 bound_to 1114
  -10.4702   14.9229   57.5704 LP  0  0  0  0  0  0  0  0  0  0  0  0  # atno 4763 bound_to 924 
  -11.3669   15.1680   56.2278 LP  0  0  0  0  0  0  0  0  0  0  0  0  # atno 4764 bound_to 924 
  -19.8642   13.8677   63.5937 LP  0  0  0  0  0  0  0  0  0  0  0  0  # atno 4771 bound_to 1244
  -20.6415   12.5251   63.0838 LP  0  0  0  0  0  0  0  0  0  0  0  0  # atno 4772 bound_to 1244
   -7.2090   23.8367   72.4829 LP  0  0  0  0  0  0  0  0  0  0  0  0  # atno 4775 bound_to 178 
   -6.0554   23.2647   71.4786 LP  0  0  0  0  0  0  0  0  0  0  0  0  # atno 4776 bound_to 178 
   -1.8056   24.3710   72.6124 LP  0  0  0  0  0  0  0  0  0  0  0  0  # atno 4779 bound_to 171 
   -2.7877   23.4058   71.7347 LP  0  0  0  0  0  0  0  0  0  0  0  0  # atno 4780 bound_to 171 
   -8.7051   26.2997   64.0245 LP  0  0  0  0  0  0  0  0  0  0  0  0  # atno 4783 bound_to 185 
   -7.9959   25.0403   63.2645 LP  0  0  0  0  0  0  0  0  0  0  0  0  # atno 4784 bound_to 185 
   -1.8475   17.2697   72.8063 LP  0  0  0  0  0  0  0  0  0  0  0  0  # atno 4785 bound_to 346 
   -2.8574   18.5003   73.1698 LP  0  0  0  0  0  0  0  0  0  0  0  0  # atno 4786 bound_to 346 
   -3.5135   21.9013   74.2625 LP  0  0  0  0  0  0  0  0  0  0  0  0  # atno 4787 bound_to 339 
   -3.3014   20.4397   74.9593 LP  0  0  0  0  0  0  0  0  0  0  0  0  # atno 4788 bound_to 339 
   -7.7654   28.2078   65.5204 LP  0  0  0  0  0  0  0  0  0  0  0  0  # atno 4797 bound_to 154 
   -6.7710   29.4484   65.1478 LP  0  0  0  0  0  0  0  0  0  0  0  0  # atno 4798 bound_to 154 

$$$$
