unknown|prepared_Mpro-x1077|sdf|1|dock4
  -GOLD-   5 72214353D 1   1.00000     0.00000

 28 29  0  0  0  0  0  0  0  0  1 V2000
  -11.6204    6.2907   71.0182 N   0  0  0  0  0  0  0  0  0  0  0  0
  -11.8310    7.4297   71.0534 C   0  0  0  0  0  0  0  0  0  0  0  0
  -12.0885    8.8571   71.1161 C   0  0  0  0  0  0  0  0  0  0  0  0
  -11.4520    9.7028   70.2339 C   0  0  0  0  0  0  0  0  0  0  0  0
  -11.6997   11.0801   70.2934 C   0  0  0  0  0  0  0  0  0  0  0  0
  -12.5762   11.5704   71.2334 C   0  0  0  0  0  0  0  0  0  0  0  0
  -13.1937   10.7042   72.0969 C   0  0  0  0  0  0  0  0  0  0  0  0
  -12.9402    9.3646   72.0243 N   0  0  0  0  0  0  0  0  0  0  0  0
  -12.8506   12.9589   71.3158 N   0  0  0  0  0  0  0  0  0  0  0  0
  -13.9373   13.3083   72.1741 C   0  0  0  0  0  0  0  0  0  0  0  0
  -14.0643   14.7526   72.5142 C   0  0  0  0  0  0  0  0  0  0  0  0
  -12.7635   15.4970   72.6136 C   0  0  0  0  0  0  0  0  0  0  0  0
  -12.3580   16.0375   71.4051 O   0  0  0  0  0  0  0  0  0  0  0  0
  -12.5182   15.2002   70.3311 C   0  0  0  0  0  0  0  0  0  0  0  0
  -12.0133   13.8136   70.5332 C   0  0  0  0  0  0  0  0  0  0  0  0
  -10.7615    9.2887   69.4978 H   0  0  0  0  0  0  0  0  0  0  0  0
  -11.1808   11.6907   69.5895 H   0  0  0  0  0  0  0  0  0  0  0  0
  -13.8916   10.9904   72.8606 H   0  0  0  0  0  0  0  0  0  0  0  0
  -14.8972   12.9705   71.7347 H   0  0  0  0  0  0  0  0  0  0  0  0
  -13.8306   12.7595   73.1473 H   0  0  0  0  0  0  0  0  0  0  0  0
  -14.6178   14.8899   73.4729 H   0  0  0  0  0  0  0  0  0  0  0  0
  -14.6928   15.2915   71.7448 H   0  0  0  0  0  0  0  0  0  0  0  0
  -12.9296   16.3541   73.3012 H   0  0  0  0  0  0  0  0  0  0  0  0
  -11.9669   14.8816   73.0976 H   0  0  0  0  0  0  0  0  0  0  0  0
  -13.5794   15.1699   70.0492 H   0  0  0  0  0  0  0  0  0  0  0  0
  -11.9135   15.6427   69.4846 H   0  0  0  0  0  0  0  0  0  0  0  0
  -10.9918   13.7672   70.9574 H   0  0  0  0  0  0  0  0  0  0  0  0
  -11.9078   13.3840   69.4904 H   0  0  0  0  0  0  0  0  0  0  0  0
  1  2  3  0  0  0  0
  2  3  1  0  0  0  0
  3  4  2  0  0  0  0
  4  5  1  0  0  0  0
  5  6  2  0  0  0  0
  6  7  1  0  0  0  0
  7  8  2  0  0  0  0
  6  9  1  0  0  0  0
  9 10  1  0  0  0  0
 10 11  1  0  0  0  0
 11 12  1  0  0  0  0
 12 13  1  0  0  0  0
 13 14  1  0  0  0  0
 14 15  1  0  0  0  0
  3  8  1  0  0  0  0
 15  9  1  0  0  0  0
  4 16  1  0  0  0  0
  5 17  1  0  0  0  0
  7 18  1  0  0  0  0
 10 19  1  0  0  0  0
 10 20  1  0  0  0  0
 11 21  1  0  0  0  0
 11 22  1  0  0  0  0
 12 23  1  0  0  0  0
 12 24  1  0  0  0  0
 14 25  1  0  0  0  0
 14 26  1  0  0  0  0
 15 27  1  0  0  0  0
 15 28  1  0  0  0  0
M  END
> <Gold.Version>
2022.1.0

> <Gold.Id.Protein>
6LU7|6LU7_protein|mol2

> <Gold.PLP.Fitness>
43.9315

> <Gold.PLP.PLP>
-42.2397

> <Gold.PLP.part.hbond>
0.0000

> <Gold.PLP.part.metal>
0.0000

> <Gold.PLP.part.buried>
-6.3718

> <Gold.PLP.part.nonpolar>
-37.3812

> <Gold.PLP.part.repulsive>
0.3642

> <Gold.PLP.ligand.clash>
1.4695

> <Gold.PLP.ligand.torsion>
0.0443

> <Gold.PLP.Chemscore.Hbond>
0.0000

> <Gold.PLP.Chemscore.CHOScore>
1.0000

> <Gold.PLP.Chemscore.Metal>
0.0000

> <Gold.Chemscore.Hbonds>
donor molecule, donor type, donor heavy atom, donor atom, acceptor molecule, acceptor atom, score
      L1  C     7    18       P1  1449  1.00

> <Gold.PLP.Chemscore.Internal.Correction>
0.2499

> <Gold.Protein.RotatedTorsions>
[ 3973 1471 1470 1467 ] final  146.42 input   60.00 | X-H torsion
[ 3372  414  413  411 ] final -107.23 input   60.00 | X-H torsion
[ 4268 1114 1113 1110 ] final -124.59 input   59.99 | X-H torsion
[ 4409  924  923  921 ] final  -26.76 input   59.99 | X-H torsion
[ 4183 1244 1243 1241 ] final  109.13 input   59.99 | X-H torsion
[ 3800  178  177  174 ] final  163.13 input   60.00 | X-H torsion
[ 3793  171  170  167 ] final -100.35 input   60.00 | X-H torsion
[ 3576  185  184  181 ] final -117.74 input   60.00 | X-H torsion
[ 3523  346  345  342 ] final -177.81 input   60.01 | X-H torsion
[ 3515  339  338  335 ] final   28.04 input   60.00 | X-H torsion
[ 3663  154  153  150 ] final   76.14 input   60.00 | X-H torsion
[ 4280 1130 1129 1126 ] final  -26.88 input   60.00 | X-H torsion

> <Gold.Protein.ActiveResidues>
 VAL20   THR21   CYS22   GLY23   THR24   THR25   THR26   LEU27   ASN28   PRO39  
 ARG40   HIS41   VAL42   CYS44   THR45   SER46   ASP48   MET49   LEU50   PRO52  
 TYR54   TYR118  ASN119  ILE136  GLY138  SER139  PHE140  LEU141  ASN142  GLY143 
 SER144  CYS145  GLY146  SER147  TYR161  HIS163  HIS164  MET165  GLU166  LEU167 
 PRO168  THR169  GLY170  VAL171  HIS172  ALA173  PHE181  PHE185  VAL186  ASP187 
 ARG188  GLN189  THR190  ALA191  GLN192  ALA193 

> <Gold.Protein.RotatedAtoms>
  -15.5410   17.5150   75.2787 H   0  0  0  0  0  0  0  0  0  0  0  0  # atno 3372 bound_to 414 
   -3.6716   21.2347   74.1860 H   0  0  0  0  0  0  0  0  0  0  0  0  # atno 3515 bound_to 339 
   -1.8635   17.2494   72.8002 H   0  0  0  0  0  0  0  0  0  0  0  0  # atno 3523 bound_to 346 
   -7.5242   25.2638   63.0827 H   0  0  0  0  0  0  0  0  0  0  0  0  # atno 3576 bound_to 185 
   -8.3190   29.7116   65.0313 H   0  0  0  0  0  0  0  0  0  0  0  0  # atno 3663 bound_to 154 
   -2.2109   24.8296   72.7618 H   0  0  0  0  0  0  0  0  0  0  0  0  # atno 3793 bound_to 171 
   -7.6368   23.2501   72.4651 H   0  0  0  0  0  0  0  0  0  0  0  0  # atno 3800 bound_to 178 
  -15.7178    7.7392   78.3974 H   0  0  0  0  0  0  0  0  0  0  0  0  # atno 3973 bound_to 1471
  -20.4966   12.6627   62.9656 H   0  0  0  0  0  0  0  0  0  0  0  0  # atno 4183 bound_to 1244
  -12.6139   15.2378   61.1348 H   0  0  0  0  0  0  0  0  0  0  0  0  # atno 4268 bound_to 1114
  -16.2653   20.3813   58.6880 H   0  0  0  0  0  0  0  0  0  0  0  0  # atno 4280 bound_to 1130
  -12.0332   15.3782   56.6431 H   0  0  0  0  0  0  0  0  0  0  0  0  # atno 4409 bound_to 924 
  -15.1919    7.7700   76.8578 LP  0  0  0  0  0  0  0  0  0  0  0  0  # atno 4696 bound_to 1471
  -15.1219    9.1194   77.7747 LP  0  0  0  0  0  0  0  0  0  0  0  0  # atno 4697 bound_to 1471
  -14.4269   17.1140   76.3949 LP  0  0  0  0  0  0  0  0  0  0  0  0  # atno 4731 bound_to 414 
  -14.1222   18.3105   75.3262 LP  0  0  0  0  0  0  0  0  0  0  0  0  # atno 4732 bound_to 414 
  -14.1701   15.7110   61.0889 LP  0  0  0  0  0  0  0  0  0  0  0  0  # atno 4733 bound_to 1114
  -13.1354   16.3991   62.1483 LP  0  0  0  0  0  0  0  0  0  0  0  0  # atno 4734 bound_to 1114
  -11.3476   15.1965   58.1076 LP  0  0  0  0  0  0  0  0  0  0  0  0  # atno 4763 bound_to 924 
  -10.4786   14.9106   56.7550 LP  0  0  0  0  0  0  0  0  0  0  0  0  # atno 4764 bound_to 924 
  -20.9567   12.8774   64.5117 LP  0  0  0  0  0  0  0  0  0  0  0  0  # atno 4771 bound_to 1244
  -19.9130   13.9222   63.8148 LP  0  0  0  0  0  0  0  0  0  0  0  0  # atno 4772 bound_to 1244
   -6.2411   23.8456   71.8773 LP  0  0  0  0  0  0  0  0  0  0  0  0  # atno 4775 bound_to 178 
   -6.7323   22.3454   71.4594 LP  0  0  0  0  0  0  0  0  0  0  0  0  # atno 4776 bound_to 178 
   -2.1876   23.4302   71.9317 LP  0  0  0  0  0  0  0  0  0  0  0  0  # atno 4779 bound_to 171 
   -3.5663   24.2992   72.0343 LP  0  0  0  0  0  0  0  0  0  0  0  0  # atno 4780 bound_to 171 
   -7.6084   26.8070   63.5918 LP  0  0  0  0  0  0  0  0  0  0  0  0  # atno 4783 bound_to 185 
   -8.8220   25.7666   63.9257 LP  0  0  0  0  0  0  0  0  0  0  0  0  # atno 4784 bound_to 185 
   -2.8321   18.5029   73.1727 LP  0  0  0  0  0  0  0  0  0  0  0  0  # atno 4785 bound_to 346 
   -3.4744   17.1072   72.6195 LP  0  0  0  0  0  0  0  0  0  0  0  0  # atno 4786 bound_to 346 
   -2.9224   20.6397   75.5023 LP  0  0  0  0  0  0  0  0  0  0  0  0  # atno 4787 bound_to 339 
   -2.8707   22.2404   75.1836 LP  0  0  0  0  0  0  0  0  0  0  0  0  # atno 4788 bound_to 339 
   -7.8649   28.2249   65.5127 LP  0  0  0  0  0  0  0  0  0  0  0  0  # atno 4797 bound_to 154 
   -6.7374   29.3576   65.1775 LP  0  0  0  0  0  0  0  0  0  0  0  0  # atno 4798 bound_to 154 

$$$$
