unknown|prepared_Mpro-x0967|sdf|1|dock5
  -GOLD-   5 72214353D 1   1.00000     0.00000

 35 35  0  0  0  0  0  0  0  0  1 V2000
  -12.6065   12.0002   63.4266 C   0  0  0  0  0  0  0  0  0  0  0  0
  -11.7301   12.1182   64.6233 C   0  0  0  0  0  0  0  0  0  0  0  0
  -10.6703   11.4941   64.6728 O   0  0  0  0  0  0  0  0  0  0  0  0
  -12.1091   12.9612   65.7029 N   0  0  0  0  0  0  0  0  0  0  0  0
  -11.4746   13.3052   66.8729 C   0  0  0  0  0  0  0  0  0  0  0  0
  -11.5406   12.3393   68.0485 C   0  0  0  0  0  0  0  0  0  0  0  0
  -11.9118   13.1309   69.2594 C   0  0  0  0  0  0  0  0  0  0  0  0
  -12.3861   12.4786   70.3983 C   0  0  0  0  0  0  0  0  0  0  0  0
  -12.7953   13.1934   71.4909 C   0  0  0  0  0  0  0  0  0  0  0  0
  -12.7559   14.6167   71.5163 C   0  0  0  0  0  0  0  0  0  0  0  0
  -12.3018   15.2543   70.4356 C   0  0  0  0  0  0  0  0  0  0  0  0
  -11.8809   14.4984   69.3169 C   0  0  0  0  0  0  0  0  0  0  0  0
  -13.2112   15.1593   72.7340 O   0  0  0  0  0  0  0  0  0  0  0  0
  -10.1008   13.8722   66.8124 C   0  0  0  0  0  0  0  0  0  0  0  0
   -9.0990   13.2852   66.7099 O   0  0  0  0  0  0  0  0  0  0  0  0
  -10.1820   15.3579   66.8977 N   0  0  0  0  0  0  0  0  0  0  0  0
   -8.9396   16.0444   66.9099 C   0  0  0  0  0  0  0  0  0  0  0  0
   -9.2937   17.5740   67.0398 C   0  0  0  0  0  0  0  0  0  0  0  0
   -9.5414   18.6665   67.1504 C   0  0  0  0  0  0  0  0  0  0  0  0
   -9.9579   20.4319   67.3190 Br  0  0  0  0  0  0  0  0  0  0  0  0
  -12.2429   11.3320   62.6516 H   0  0  0  0  0  0  0  0  0  0  0  0
  -12.7378   13.0528   62.9965 H   0  0  0  0  0  0  0  0  0  0  0  0
  -13.6639   11.7466   63.7132 H   0  0  0  0  0  0  0  0  0  0  0  0
  -13.1077   13.3930   65.5577 H   0  0  0  0  0  0  0  0  0  0  0  0
  -12.1268   14.2203   67.3201 H   0  0  0  0  0  0  0  0  0  0  0  0
  -12.3978   11.6190   67.8264 H   0  0  0  0  0  0  0  0  0  0  0  0
  -10.6922   11.7149   68.2428 H   0  0  0  0  0  0  0  0  0  0  0  0
  -12.3711   11.4053   70.3514 H   0  0  0  0  0  0  0  0  0  0  0  0
  -13.1707   12.6532   72.3944 H   0  0  0  0  0  0  0  0  0  0  0  0
  -12.2548   16.3297   70.3405 H   0  0  0  0  0  0  0  0  0  0  0  0
  -11.4897   15.0413   68.4505 H   0  0  0  0  0  0  0  0  0  0  0  0
  -13.2380   16.1081   72.9621 H   0  0  0  0  0  0  0  0  0  0  0  0
  -11.0658   15.8747   66.9330 H   0  0  0  0  0  0  0  0  0  0  0  0
   -8.2908   15.7869   67.7466 H   0  0  0  0  0  0  0  0  0  0  0  0
   -8.3764   15.9316   65.9830 H   0  0  0  0  0  0  0  0  0  0  0  0
  1  2  1  0  0  0  0
  2  3  2  0  0  0  0
  2  4  1  0  0  0  0
  4  5  1  0  0  0  0
  5  6  1  0  0  0  0
  6  7  1  0  0  0  0
  7  8  2  0  0  0  0
  8  9  1  0  0  0  0
  9 10  2  0  0  0  0
 10 11  1  0  0  0  0
 11 12  2  0  0  0  0
 10 13  1  0  0  0  0
  5 14  1  0  0  0  0
 14 15  2  0  0  0  0
 14 16  1  0  0  0  0
 16 17  1  0  0  0  0
 17 18  1  0  0  0  0
 18 19  3  0  0  0  0
 19 20  1  0  0  0  0
 12  7  1  0  0  0  0
  1 21  1  0  0  0  0
  1 22  1  0  0  0  0
  1 23  1  0  0  0  0
  4 24  1  0  0  0  0
  5 25  1  0  0  0  0
  6 26  1  0  0  0  0
  6 27  1  0  0  0  0
  8 28  1  0  0  0  0
  9 29  1  0  0  0  0
 11 30  1  0  0  0  0
 12 31  1  0  0  0  0
 13 32  1  0  0  0  0
 16 33  1  0  0  0  0
 17 34  1  0  0  0  0
 17 35  1  0  0  0  0
M  END
> <Gold.Version>
2022.1.0

> <Gold.Id.Protein>
6LU7|6LU7_protein|mol2

> <Gold.PLP.Fitness>
43.9144

> <Gold.PLP.PLP>
-45.5174

> <Gold.PLP.part.hbond>
0.0000

> <Gold.PLP.part.metal>
0.0000

> <Gold.PLP.part.buried>
-8.4172

> <Gold.PLP.part.nonpolar>
-38.0696

> <Gold.PLP.part.repulsive>
0.3201

> <Gold.PLP.ligand.clash>
0.0036

> <Gold.PLP.ligand.torsion>
1.1801

> <Gold.PLP.Chemscore.Hbond>
0.0000

> <Gold.PLP.Chemscore.CHOScore>
0.0000

> <Gold.PLP.Chemscore.Metal>
0.0000

> <Gold.PLP.Chemscore.Internal.Correction>
0.7609

> <Gold.Protein.RotatedTorsions>
[ 3973 1471 1470 1467 ] final  -37.22 input   60.00 | X-H torsion
[ 3372  414  413  411 ] final  103.45 input   60.00 | X-H torsion
[ 4268 1114 1113 1110 ] final  -74.51 input   59.99 | X-H torsion
[ 4409  924  923  921 ] final  110.41 input   59.99 | X-H torsion
[ 4183 1244 1243 1241 ] final  -57.71 input   59.99 | X-H torsion
[ 3800  178  177  174 ] final -125.57 input   60.00 | X-H torsion
[ 3793  171  170  167 ] final  -89.77 input   60.00 | X-H torsion
[ 3576  185  184  181 ] final  -98.69 input   60.00 | X-H torsion
[ 3523  346  345  342 ] final  -78.80 input   60.01 | X-H torsion
[ 3515  339  338  335 ] final -141.74 input   60.00 | X-H torsion
[ 3663  154  153  150 ] final   -6.05 input   60.00 | X-H torsion
[ 4280 1130 1129 1126 ] final  -29.35 input   60.00 | X-H torsion

> <Gold.Protein.ActiveResidues>
 VAL20   THR21   CYS22   GLY23   THR24   THR25   THR26   LEU27   ASN28   PRO39  
 ARG40   HIS41   VAL42   CYS44   THR45   SER46   ASP48   MET49   LEU50   PRO52  
 TYR54   TYR118  ASN119  ILE136  GLY138  SER139  PHE140  LEU141  ASN142  GLY143 
 SER144  CYS145  GLY146  SER147  TYR161  HIS163  HIS164  MET165  GLU166  LEU167 
 PRO168  THR169  GLY170  VAL171  HIS172  ALA173  PHE181  PHE185  VAL186  ASP187 
 ARG188  GLN189  THR190  ALA191  GLN192  ALA193 

> <Gold.Protein.RotatedAtoms>
  -14.0646   17.4109   76.3131 H   0  0  0  0  0  0  0  0  0  0  0  0  # atno 3372 bound_to 414 
   -2.6567   21.3433   75.7468 H   0  0  0  0  0  0  0  0  0  0  0  0  # atno 3515 bound_to 339 
   -3.2194   16.8859   72.5624 H   0  0  0  0  0  0  0  0  0  0  0  0  # atno 3523 bound_to 346 
   -7.7763   25.1064   63.1699 H   0  0  0  0  0  0  0  0  0  0  0  0  # atno 3576 bound_to 185 
   -8.3744   28.5397   65.4033 H   0  0  0  0  0  0  0  0  0  0  0  0  # atno 3663 bound_to 154 
   -2.3635   24.9102   72.7638 H   0  0  0  0  0  0  0  0  0  0  0  0  # atno 3793 bound_to 171 
   -7.3843   22.3659   71.8773 H   0  0  0  0  0  0  0  0  0  0  0  0  # atno 3800 bound_to 178 
  -14.9671    8.7251   76.9951 H   0  0  0  0  0  0  0  0  0  0  0  0  # atno 3973 bound_to 1471
  -20.5541   13.4957   64.6277 H   0  0  0  0  0  0  0  0  0  0  0  0  # atno 4183 bound_to 1244
  -12.4063   15.7354   61.7155 H   0  0  0  0  0  0  0  0  0  0  0  0  # atno 4268 bound_to 1114
  -16.2803   20.3707   58.6519 H   0  0  0  0  0  0  0  0  0  0  0  0  # atno 4280 bound_to 1130
  -10.4025   14.8950   57.0246 H   0  0  0  0  0  0  0  0  0  0  0  0  # atno 4409 bound_to 924 
  -15.5208    8.5956   78.5197 LP  0  0  0  0  0  0  0  0  0  0  0  0  # atno 4696 bound_to 1471
  -15.5491    7.3009   77.5250 LP  0  0  0  0  0  0  0  0  0  0  0  0  # atno 4697 bound_to 1471
  -14.5123   18.3380   75.0529 LP  0  0  0  0  0  0  0  0  0  0  0  0  # atno 4731 bound_to 414 
  -15.5236   17.1914   75.6266 LP  0  0  0  0  0  0  0  0  0  0  0  0  # atno 4732 bound_to 414 
  -13.6273   15.2194   60.7717 LP  0  0  0  0  0  0  0  0  0  0  0  0  # atno 4733 bound_to 1114
  -13.8871   16.3895   61.8807 LP  0  0  0  0  0  0  0  0  0  0  0  0  # atno 4734 bound_to 1114
  -11.8575   15.3192   56.4323 LP  0  0  0  0  0  0  0  0  0  0  0  0  # atno 4763 bound_to 924 
  -11.6110   15.2745   58.0460 LP  0  0  0  0  0  0  0  0  0  0  0  0  # atno 4764 bound_to 924 
  -19.8898   13.5865   63.1450 LP  0  0  0  0  0  0  0  0  0  0  0  0  # atno 4771 bound_to 1244
  -20.9219   12.3741   63.5076 LP  0  0  0  0  0  0  0  0  0  0  0  0  # atno 4772 bound_to 1244
   -7.1664   23.8656   72.4701 LP  0  0  0  0  0  0  0  0  0  0  0  0  # atno 4775 bound_to 178 
   -6.0613   23.2158   71.4587 LP  0  0  0  0  0  0  0  0  0  0  0  0  # atno 4776 bound_to 178 
   -2.0515   23.4997   72.0147 LP  0  0  0  0  0  0  0  0  0  0  0  0  # atno 4779 bound_to 171 
   -3.5486   24.1486   71.9493 LP  0  0  0  0  0  0  0  0  0  0  0  0  # atno 4780 bound_to 171 
   -7.3840   26.6643   63.4286 LP  0  0  0  0  0  0  0  0  0  0  0  0  # atno 4783 bound_to 185 
   -8.7924   26.0680   64.0011 LP  0  0  0  0  0  0  0  0  0  0  0  0  # atno 4784 bound_to 185 
   -1.7817   17.5610   72.9164 LP  0  0  0  0  0  0  0  0  0  0  0  0  # atno 4785 bound_to 346 
   -3.1592   18.4152   73.1153 LP  0  0  0  0  0  0  0  0  0  0  0  0  # atno 4786 bound_to 346 
   -3.3026   22.1942   74.5194 LP  0  0  0  0  0  0  0  0  0  0  0  0  # atno 4787 bound_to 339 
   -3.5126   20.5766   74.5947 LP  0  0  0  0  0  0  0  0  0  0  0  0  # atno 4788 bound_to 339 
   -6.7649   28.7760   65.3621 LP  0  0  0  0  0  0  0  0  0  0  0  0  # atno 4797 bound_to 154 
   -7.7816   29.9868   64.9535 LP  0  0  0  0  0  0  0  0  0  0  0  0  # atno 4798 bound_to 154 

$$$$
