unknown|prepared_Mpro-x0354|sdf|1|dock2
  -GOLD-   5 72214353D 1   1.00000     0.00000

 38 39  0  0  0  0  0  0  0  0  1 V2000
  -14.1049   15.8874   73.0022 C   0  0  0  0  0  0  0  0  0  0  0  0
  -13.0145   14.9713   72.7301 N   0  0  0  0  0  0  0  0  0  0  0  0
  -11.8401   15.7192   72.4362 C   0  0  0  0  0  0  0  0  0  0  0  0
  -11.9420   16.1980   70.9821 C   0  0  0  0  0  0  0  0  0  0  0  0
  -11.7940   15.0074   70.1742 N   0  0  0  0  0  0  0  0  0  0  0  0
  -12.3836   13.7831   70.6667 C   0  0  0  0  0  0  0  0  0  0  0  0
  -13.3837   14.0041   71.7545 C   0  0  0  0  0  0  0  0  0  0  0  0
  -11.0928   15.0764   68.9548 C   0  0  0  0  0  0  0  0  0  0  0  0
  -10.9851   14.0117   68.2761 O   0  0  0  0  0  0  0  0  0  0  0  0
  -10.5168   16.3573   68.5126 C   0  0  0  0  0  0  0  0  0  0  0  0
   -9.6571   16.1330   67.4285 O   0  0  0  0  0  0  0  0  0  0  0  0
   -8.9156   17.1777   66.9098 C   0  0  0  0  0  0  0  0  0  0  0  0
   -9.3728   18.4739   66.9550 C   0  0  0  0  0  0  0  0  0  0  0  0
   -8.6124   19.5161   66.4232 C   0  0  0  0  0  0  0  0  0  0  0  0
   -7.3924   19.2940   65.8413 C   0  0  0  0  0  0  0  0  0  0  0  0
   -6.5738   20.3933   65.2721 C   0  0  0  0  0  0  0  0  0  0  0  0
   -6.9541   17.9902   65.8076 C   0  0  0  0  0  0  0  0  0  0  0  0
   -7.6746   16.9444   66.3193 C   0  0  0  0  0  0  0  0  0  0  0  0
  -13.7724   16.9486   73.0113 H   0  0  0  0  0  0  0  0  0  0  0  0
  -14.5451   15.7115   74.0209 H   0  0  0  0  0  0  0  0  0  0  0  0
  -14.8846   15.8192   72.2162 H   0  0  0  0  0  0  0  0  0  0  0  0
  -10.9130   15.0903   72.4654 H   0  0  0  0  0  0  0  0  0  0  0  0
  -11.7440   16.5659   73.1306 H   0  0  0  0  0  0  0  0  0  0  0  0
  -11.1816   16.9668   70.7716 H   0  0  0  0  0  0  0  0  0  0  0  0
  -12.9872   16.5802   70.7940 H   0  0  0  0  0  0  0  0  0  0  0  0
  -11.6539   13.0307   70.9735 H   0  0  0  0  0  0  0  0  0  0  0  0
  -12.9492   13.3449   69.7921 H   0  0  0  0  0  0  0  0  0  0  0  0
  -14.3794   14.2579   71.3012 H   0  0  0  0  0  0  0  0  0  0  0  0
  -13.5501   13.0297   72.2740 H   0  0  0  0  0  0  0  0  0  0  0  0
  -11.3304   17.0360   68.1708 H   0  0  0  0  0  0  0  0  0  0  0  0
  -10.0074   16.9041   69.3347 H   0  0  0  0  0  0  0  0  0  0  0  0
  -10.3269   18.7687   67.4121 H   0  0  0  0  0  0  0  0  0  0  0  0
   -8.9822   20.5499   66.4612 H   0  0  0  0  0  0  0  0  0  0  0  0
   -7.1842   21.2904   65.0648 H   0  0  0  0  0  0  0  0  0  0  0  0
   -5.9815   20.0648   64.3922 H   0  0  0  0  0  0  0  0  0  0  0  0
   -5.8143   20.7099   66.0444 H   0  0  0  0  0  0  0  0  0  0  0  0
   -5.9780   17.8030   65.3437 H   0  0  0  0  0  0  0  0  0  0  0  0
   -7.3509   15.9193   66.3034 H   0  0  0  0  0  0  0  0  0  0  0  0
  1  2  1  0  0  0  0
  2  3  1  0  0  0  0
  3  4  1  0  0  0  0
  4  5  1  0  0  0  0
  5  6  1  0  0  0  0
  6  7  1  0  0  0  0
  5  8  1  0  0  0  0
  8  9  2  0  0  0  0
  8 10  1  0  0  0  0
 10 11  1  0  0  0  0
 11 12  1  0  0  0  0
 12 13  2  0  0  0  0
 13 14  1  0  0  0  0
 14 15  2  0  0  0  0
 15 16  1  0  0  0  0
 15 17  1  0  0  0  0
 17 18  2  0  0  0  0
  7  2  1  0  0  0  0
 12 18  1  0  0  0  0
  1 19  1  0  0  0  0
  1 20  1  0  0  0  0
  1 21  1  0  0  0  0
  3 22  1  0  0  0  0
  3 23  1  0  0  0  0
  4 24  1  0  0  0  0
  4 25  1  0  0  0  0
  6 26  1  0  0  0  0
  6 27  1  0  0  0  0
  7 28  1  0  0  0  0
  7 29  1  0  0  0  0
 10 30  1  0  0  0  0
 10 31  1  0  0  0  0
 13 32  1  0  0  0  0
 14 33  1  0  0  0  0
 16 34  1  0  0  0  0
 16 35  1  0  0  0  0
 16 36  1  0  0  0  0
 17 37  1  0  0  0  0
 18 38  1  0  0  0  0
M  END
> <Gold.Version>
2022.1.0

> <Gold.Id.Protein>
6LU7|6LU7_protein|mol2

> <Gold.PLP.Fitness>
40.2776

> <Gold.PLP.PLP>
-41.2661

> <Gold.PLP.part.hbond>
0.0000

> <Gold.PLP.part.metal>
0.0000

> <Gold.PLP.part.buried>
-5.3800

> <Gold.PLP.part.nonpolar>
-35.6971

> <Gold.PLP.part.repulsive>
0.1572

> <Gold.PLP.ligand.clash>
0.0000

> <Gold.PLP.ligand.torsion>
0.5029

> <Gold.PLP.Chemscore.Hbond>
0.0000

> <Gold.PLP.Chemscore.CHOScore>
0.0000

> <Gold.PLP.Chemscore.Metal>
0.0000

> <Gold.PLP.Chemscore.Internal.Correction>
0.0173

> <Gold.Protein.RotatedTorsions>
[ 3973 1471 1470 1467 ] final   29.79 input   60.00 | X-H torsion
[ 3372  414  413  411 ] final  143.70 input   60.00 | X-H torsion
[ 4268 1114 1113 1110 ] final  118.55 input   59.99 | X-H torsion
[ 4409  924  923  921 ] final  107.00 input   59.99 | X-H torsion
[ 4183 1244 1243 1241 ] final  -84.57 input   59.99 | X-H torsion
[ 3800  178  177  174 ] final    8.41 input   60.00 | X-H torsion
[ 3793  171  170  167 ] final   75.89 input   60.00 | X-H torsion
[ 3576  185  184  181 ] final  -49.48 input   60.00 | X-H torsion
[ 3523  346  345  342 ] final  -84.67 input   60.01 | X-H torsion
[ 3515  339  338  335 ] final  -59.72 input   60.00 | X-H torsion
[ 3663  154  153  150 ] final   44.13 input   60.00 | X-H torsion
[ 4280 1130 1129 1126 ] final   87.42 input   60.00 | X-H torsion

> <Gold.Protein.ActiveResidues>
 VAL20   THR21   CYS22   GLY23   THR24   THR25   THR26   LEU27   ASN28   PRO39  
 ARG40   HIS41   VAL42   CYS44   THR45   SER46   ASP48   MET49   LEU50   PRO52  
 TYR54   TYR118  ASN119  ILE136  GLY138  SER139  PHE140  LEU141  ASN142  GLY143 
 SER144  CYS145  GLY146  SER147  TYR161  HIS163  HIS164  MET165  GLU166  LEU167 
 PRO168  THR169  GLY170  VAL171  HIS172  ALA173  PHE181  PHE185  VAL186  ASP187 
 ARG188  GLN189  THR190  ALA191  GLN192  ALA193 

> <Gold.Protein.RotatedAtoms>
  -14.5895   17.0421   76.3725 H   0  0  0  0  0  0  0  0  0  0  0  0  # atno 3372 bound_to 414 
   -3.2072   20.4491   75.1088 H   0  0  0  0  0  0  0  0  0  0  0  0  # atno 3515 bound_to 339 
   -3.1360   16.8396   72.5523 H   0  0  0  0  0  0  0  0  0  0  0  0  # atno 3523 bound_to 346 
   -8.4594   25.1380   63.5445 H   0  0  0  0  0  0  0  0  0  0  0  0  # atno 3576 bound_to 185 
   -8.5587   29.2743   65.1651 H   0  0  0  0  0  0  0  0  0  0  0  0  # atno 3663 bound_to 154 
   -3.1470   23.5817   71.7284 H   0  0  0  0  0  0  0  0  0  0  0  0  # atno 3793 bound_to 171 
   -6.0614   23.4228   71.5561 H   0  0  0  0  0  0  0  0  0  0  0  0  # atno 3800 bound_to 178 
  -15.2113    7.7266   76.8868 H   0  0  0  0  0  0  0  0  0  0  0  0  # atno 3973 bound_to 1471
  -20.2763   13.7728   64.4404 H   0  0  0  0  0  0  0  0  0  0  0  0  # atno 4183 bound_to 1244
  -14.1457   15.6766   61.0586 H   0  0  0  0  0  0  0  0  0  0  0  0  # atno 4268 bound_to 1114
  -15.5359   19.3411   59.6154 H   0  0  0  0  0  0  0  0  0  0  0  0  # atno 4280 bound_to 1130
  -10.4125   14.8970   56.9698 H   0  0  0  0  0  0  0  0  0  0  0  0  # atno 4409 bound_to 924 
  -15.1043    9.1190   77.7221 LP  0  0  0  0  0  0  0  0  0  0  0  0  # atno 4696 bound_to 1471
  -15.7196    7.7831   78.4316 LP  0  0  0  0  0  0  0  0  0  0  0  0  # atno 4697 bound_to 1471
  -14.0101   18.2548   75.4551 LP  0  0  0  0  0  0  0  0  0  0  0  0  # atno 4731 bound_to 414 
  -15.4972   17.6460   75.1645 LP  0  0  0  0  0  0  0  0  0  0  0  0  # atno 4732 bound_to 414 
  -13.1849   16.4133   62.1459 LP  0  0  0  0  0  0  0  0  0  0  0  0  # atno 4733 bound_to 1114
  -12.5778   15.2549   61.1680 LP  0  0  0  0  0  0  0  0  0  0  0  0  # atno 4734 bound_to 1114
  -11.8982   15.3321   56.4688 LP  0  0  0  0  0  0  0  0  0  0  0  0  # atno 4763 bound_to 924 
  -11.5603   15.2596   58.0647 LP  0  0  0  0  0  0  0  0  0  0  0  0  # atno 4764 bound_to 924 
  -20.0470   13.2469   62.9177 LP  0  0  0  0  0  0  0  0  0  0  0  0  # atno 4771 bound_to 1244
  -21.0445   12.4347   63.9235 LP  0  0  0  0  0  0  0  0  0  0  0  0  # atno 4772 bound_to 1244
   -7.2173   22.2922   71.7393 LP  0  0  0  0  0  0  0  0  0  0  0  0  # atno 4775 bound_to 178 
   -7.3426   23.7249   72.5129 LP  0  0  0  0  0  0  0  0  0  0  0  0  # atno 4776 bound_to 178 
   -3.0681   24.9634   72.5843 LP  0  0  0  0  0  0  0  0  0  0  0  0  # atno 4779 bound_to 171 
   -1.7429   24.0230   72.4226 LP  0  0  0  0  0  0  0  0  0  0  0  0  # atno 4780 bound_to 171 
   -7.1478   25.9919   63.0990 LP  0  0  0  0  0  0  0  0  0  0  0  0  # atno 4783 bound_to 185 
   -8.3407   26.7085   63.9534 LP  0  0  0  0  0  0  0  0  0  0  0  0  # atno 4784 bound_to 185 
   -1.7829   17.6519   72.9490 LP  0  0  0  0  0  0  0  0  0  0  0  0  # atno 4785 bound_to 346 
   -3.2420   18.3709   73.0928 LP  0  0  0  0  0  0  0  0  0  0  0  0  # atno 4786 bound_to 346 
   -2.6833   21.9235   75.5559 LP  0  0  0  0  0  0  0  0  0  0  0  0  # atno 4787 bound_to 339 
   -3.5775   21.7478   74.2008 LP  0  0  0  0  0  0  0  0  0  0  0  0  # atno 4788 bound_to 339 
   -7.3455   28.2485   65.5169 LP  0  0  0  0  0  0  0  0  0  0  0  0  # atno 4797 bound_to 154 
   -7.0154   29.7745   65.0384 LP  0  0  0  0  0  0  0  0  0  0  0  0  # atno 4798 bound_to 154 

$$$$
