unknown|prepared_Mpro-x1077|sdf|1|dock5
  -GOLD-   5 72214353D 1   1.00000     0.00000

 28 29  0  0  0  0  0  0  0  0  1 V2000
  -12.9002   15.2692   74.2672 N   0  0  0  0  0  0  0  0  0  0  0  0
  -12.5614   15.2839   73.1590 C   0  0  0  0  0  0  0  0  0  0  0  0
  -12.1434   15.3208   71.7692 C   0  0  0  0  0  0  0  0  0  0  0  0
  -12.5678   14.3354   70.9046 C   0  0  0  0  0  0  0  0  0  0  0  0
  -12.1652   14.3700   69.5635 C   0  0  0  0  0  0  0  0  0  0  0  0
  -11.3502   15.3887   69.1273 C   0  0  0  0  0  0  0  0  0  0  0  0
  -10.9449   16.3540   70.0110 C   0  0  0  0  0  0  0  0  0  0  0  0
  -11.3472   16.3043   71.3147 N   0  0  0  0  0  0  0  0  0  0  0  0
  -10.9293   15.4533   67.7750 N   0  0  0  0  0  0  0  0  0  0  0  0
  -11.0873   14.2411   67.0364 C   0  0  0  0  0  0  0  0  0  0  0  0
  -10.9375   14.3510   65.5588 C   0  0  0  0  0  0  0  0  0  0  0  0
  -11.4028   15.6519   64.9697 C   0  0  0  0  0  0  0  0  0  0  0  0
  -10.4058   16.6116   64.9268 O   0  0  0  0  0  0  0  0  0  0  0  0
   -9.6386   16.6785   66.0614 C   0  0  0  0  0  0  0  0  0  0  0  0
  -10.4048   16.7095   67.3382 C   0  0  0  0  0  0  0  0  0  0  0  0
  -13.2138   13.5385   71.2755 H   0  0  0  0  0  0  0  0  0  0  0  0
  -12.5201   13.5834   68.9367 H   0  0  0  0  0  0  0  0  0  0  0  0
  -10.3124   17.1858   69.7656 H   0  0  0  0  0  0  0  0  0  0  0  0
  -10.3744   13.4744   67.4004 H   0  0  0  0  0  0  0  0  0  0  0  0
  -12.1131   13.8258   67.2231 H   0  0  0  0  0  0  0  0  0  0  0  0
  -11.4748   13.5223   65.0402 H   0  0  0  0  0  0  0  0  0  0  0  0
   -9.8566   14.2212   65.2550 H   0  0  0  0  0  0  0  0  0  0  0  0
  -11.6891   15.4488   63.9152 H   0  0  0  0  0  0  0  0  0  0  0  0
  -12.3347   16.0226   65.4613 H   0  0  0  0  0  0  0  0  0  0  0  0
   -8.9337   15.8362   66.0734 H   0  0  0  0  0  0  0  0  0  0  0  0
   -9.0657   17.6515   66.0060 H   0  0  0  0  0  0  0  0  0  0  0  0
  -11.2342   17.4428   67.3441 H   0  0  0  0  0  0  0  0  0  0  0  0
   -9.6741   17.1006   68.1103 H   0  0  0  0  0  0  0  0  0  0  0  0
  1  2  3  0  0  0  0
  2  3  1  0  0  0  0
  3  4  2  0  0  0  0
  4  5  1  0  0  0  0
  5  6  2  0  0  0  0
  6  7  1  0  0  0  0
  7  8  2  0  0  0  0
  6  9  1  0  0  0  0
  9 10  1  0  0  0  0
 10 11  1  0  0  0  0
 11 12  1  0  0  0  0
 12 13  1  0  0  0  0
 13 14  1  0  0  0  0
 14 15  1  0  0  0  0
  3  8  1  0  0  0  0
 15  9  1  0  0  0  0
  4 16  1  0  0  0  0
  5 17  1  0  0  0  0
  7 18  1  0  0  0  0
 10 19  1  0  0  0  0
 10 20  1  0  0  0  0
 11 21  1  0  0  0  0
 11 22  1  0  0  0  0
 12 23  1  0  0  0  0
 12 24  1  0  0  0  0
 14 25  1  0  0  0  0
 14 26  1  0  0  0  0
 15 27  1  0  0  0  0
 15 28  1  0  0  0  0
M  END
> <Gold.Version>
2022.1.0

> <Gold.Id.Protein>
6LU7|6LU7_protein|mol2

> <Gold.PLP.Fitness>
38.0894

> <Gold.PLP.PLP>
-35.9671

> <Gold.PLP.part.hbond>
-1.0000

> <Gold.PLP.part.metal>
0.0000

> <Gold.PLP.part.buried>
-6.0223

> <Gold.PLP.part.nonpolar>
-30.2974

> <Gold.PLP.part.repulsive>
0.7153

> <Gold.PLP.ligand.clash>
0.0017

> <Gold.PLP.ligand.torsion>
0.1195

> <Gold.PLP.Chemscore.Hbond>
0.7080

> <Gold.PLP.Chemscore.CHOScore>
0.0000

> <Gold.PLP.Chemscore.Metal>
0.0000

> <Gold.Chemscore.Hbonds>
donor molecule, donor type, donor heavy atom, donor atom, acceptor molecule, acceptor atom, score
      P1  H  1105  4261       L1    13  0.71

> <Gold.PLP.Chemscore.Internal.Correction>
0.2391

> <Gold.Protein.RotatedTorsions>
[ 3973 1471 1470 1467 ] final   64.48 input   60.00 | X-H torsion
[ 3372  414  413  411 ] final -119.91 input   60.00 | X-H torsion
[ 4268 1114 1113 1110 ] final  -81.89 input   59.99 | X-H torsion
[ 4409  924  923  921 ] final  143.78 input   59.99 | X-H torsion
[ 4183 1244 1243 1241 ] final -100.82 input   59.99 | X-H torsion
[ 3800  178  177  174 ] final  -74.12 input   60.00 | X-H torsion
[ 3793  171  170  167 ] final  -22.09 input   60.00 | X-H torsion
[ 3576  185  184  181 ] final   74.38 input   60.00 | X-H torsion
[ 3523  346  345  342 ] final   55.91 input   60.01 | X-H torsion
[ 3515  339  338  335 ] final -173.48 input   60.00 | X-H torsion
[ 3663  154  153  150 ] final -125.83 input   60.00 | X-H torsion
[ 4280 1130 1129 1126 ] final  155.55 input   60.00 | X-H torsion

> <Gold.Protein.ActiveResidues>
 VAL20   THR21   CYS22   GLY23   THR24   THR25   THR26   LEU27   ASN28   PRO39  
 ARG40   HIS41   VAL42   CYS44   THR45   SER46   ASP48   MET49   LEU50   PRO52  
 TYR54   TYR118  ASN119  ILE136  GLY138  SER139  PHE140  LEU141  ASN142  GLY143 
 SER144  CYS145  GLY146  SER147  TYR161  HIS163  HIS164  MET165  GLU166  LEU167 
 PRO168  THR169  GLY170  VAL171  HIS172  ALA173  PHE181  PHE185  VAL186  ASP187 
 ARG188  GLN189  THR190  ALA191  GLN192  ALA193 

> <Gold.Protein.RotatedAtoms>
  -15.5588   17.3678   75.4225 H   0  0  0  0  0  0  0  0  0  0  0  0  # atno 3372 bound_to 414 
   -2.6682   21.8353   75.6059 H   0  0  0  0  0  0  0  0  0  0  0  0  # atno 3515 bound_to 339 
   -2.9322   18.4818   73.1597 H   0  0  0  0  0  0  0  0  0  0  0  0  # atno 3523 bound_to 346 
   -8.2856   26.7339   63.9343 H   0  0  0  0  0  0  0  0  0  0  0  0  # atno 3576 bound_to 185 
   -6.7725   28.7757   65.3643 H   0  0  0  0  0  0  0  0  0  0  0  0  # atno 3663 bound_to 154 
   -3.3372   24.8068   72.4058 H   0  0  0  0  0  0  0  0  0  0  0  0  # atno 3793 bound_to 171 
   -6.6961   22.3691   71.4452 H   0  0  0  0  0  0  0  0  0  0  0  0  # atno 3800 bound_to 178 
  -15.4355    7.3763   77.2590 H   0  0  0  0  0  0  0  0  0  0  0  0  # atno 3973 bound_to 1471
  -20.1235   13.8784   64.2519 H   0  0  0  0  0  0  0  0  0  0  0  0  # atno 4183 bound_to 1244
  -12.3946   15.6496   61.6316 H   0  0  0  0  0  0  0  0  0  0  0  0  # atno 4268 bound_to 1114
  -15.7024   18.6069   58.8853 H   0  0  0  0  0  0  0  0  0  0  0  0  # atno 4280 bound_to 1130
  -10.4707   14.9252   57.5569 H   0  0  0  0  0  0  0  0  0  0  0  0  # atno 4409 bound_to 924 
  -14.9806    8.9377   77.2046 LP  0  0  0  0  0  0  0  0  0  0  0  0  # atno 4696 bound_to 1471
  -15.6175    8.3171   78.5742 LP  0  0  0  0  0  0  0  0  0  0  0  0  # atno 4697 bound_to 1471
  -14.2532   17.2280   76.3837 LP  0  0  0  0  0  0  0  0  0  0  0  0  # atno 4731 bound_to 414 
  -14.2779   18.3448   75.1926 LP  0  0  0  0  0  0  0  0  0  0  0  0  # atno 4732 bound_to 414 
  -13.7350   15.2727   60.7894 LP  0  0  0  0  0  0  0  0  0  0  0  0  # atno 4733 bound_to 1114
  -13.7913   16.4226   61.9475 LP  0  0  0  0  0  0  0  0  0  0  0  0  # atno 4734 bound_to 1114
  -11.3782   15.1714   56.2288 LP  0  0  0  0  0  0  0  0  0  0  0  0  # atno 4763 bound_to 924 
  -12.0217   15.3919   57.7134 LP  0  0  0  0  0  0  0  0  0  0  0  0  # atno 4764 bound_to 924 
  -20.1879   13.0265   62.8670 LP  0  0  0  0  0  0  0  0  0  0  0  0  # atno 4771 bound_to 1244
  -21.0575   12.5488   64.1640 LP  0  0  0  0  0  0  0  0  0  0  0  0  # atno 4772 bound_to 1244
   -7.6538   23.2083   72.4585 LP  0  0  0  0  0  0  0  0  0  0  0  0  # atno 4775 bound_to 178 
   -6.2670   23.8699   71.9054 LP  0  0  0  0  0  0  0  0  0  0  0  0  # atno 4776 bound_to 178 
   -1.7914   24.3351   72.5952 LP  0  0  0  0  0  0  0  0  0  0  0  0  # atno 4779 bound_to 171 
   -2.8280   23.4173   71.7293 LP  0  0  0  0  0  0  0  0  0  0  0  0  # atno 4780 bound_to 171 
   -8.5091   25.1625   63.5757 LP  0  0  0  0  0  0  0  0  0  0  0  0  # atno 4783 bound_to 185 
   -7.1545   25.9306   63.0840 LP  0  0  0  0  0  0  0  0  0  0  0  0  # atno 4784 bound_to 185 
   -3.4083   17.0310   72.5972 LP  0  0  0  0  0  0  0  0  0  0  0  0  # atno 4785 bound_to 346 
   -1.8219   17.3379   72.8329 LP  0  0  0  0  0  0  0  0  0  0  0  0  # atno 4786 bound_to 346 
   -3.5422   21.8385   74.2333 LP  0  0  0  0  0  0  0  0  0  0  0  0  # atno 4787 bound_to 339 
   -3.2614   20.4368   75.0226 LP  0  0  0  0  0  0  0  0  0  0  0  0  # atno 4788 bound_to 339 
   -7.7780   29.9874   64.9534 LP  0  0  0  0  0  0  0  0  0  0  0  0  # atno 4797 bound_to 154 
   -8.3818   28.5378   65.4013 LP  0  0  0  0  0  0  0  0  0  0  0  0  # atno 4798 bound_to 154 

$$$$
