unknown|prepared_Mpro-x0874|sdf|1|dock1
  -GOLD-   5 72214353D 1   1.00000     0.00000

 26 27  0  0  0  0  0  0  0  0  1 V2000
  -10.1416   13.9592   67.9814 O   0  0  0  0  0  0  0  0  0  0  0  0
  -11.2618   14.4799   67.8286 C   0  0  0  0  0  0  0  0  0  0  0  0
  -11.5241   15.5270   66.8458 C   0  0  2  0  0  0  0  0  0  0  0  0
  -10.9474   15.3354   65.4850 C   0  0  2  0  0  0  0  0  0  0  0  0
  -11.2318   13.9765   64.8925 C   0  0  0  0  0  0  0  0  0  0  0  0
  -12.5125   13.6018   64.6169 C   0  0  0  0  0  0  0  0  0  0  0  0
  -12.3318   12.0426   63.9569 S   0  0  0  0  0  0  0  0  0  0  0  0
  -10.6378   11.9000   64.0447 C   0  0  0  0  0  0  0  0  0  0  0  0
  -10.2496   13.0947   64.5966 C   0  0  0  0  0  0  0  0  0  0  0  0
   -9.5023   15.6293   65.6373 C   0  0  0  0  0  0  0  0  0  0  0  0
   -9.5600   16.9212   66.4648 C   0  0  0  0  0  0  0  0  0  0  0  0
  -10.7880   16.7801   67.3234 C   0  0  0  0  0  0  0  0  0  0  0  0
  -12.3392   14.0414   68.6431 N   0  0  0  0  0  0  0  0  0  0  0  0
  -12.6170   15.7537   66.7411 H   0  0  0  0  0  0  0  0  0  0  0  0
  -11.4438   16.0963   64.8343 H   0  0  0  0  0  0  0  0  0  0  0  0
  -13.4386   14.1828   64.7868 H   0  0  0  0  0  0  0  0  0  0  0  0
   -9.9965   11.0548   63.7351 H   0  0  0  0  0  0  0  0  0  0  0  0
   -9.1539   13.2596   64.7527 H   0  0  0  0  0  0  0  0  0  0  0  0
   -8.9347   14.8544   66.1480 H   0  0  0  0  0  0  0  0  0  0  0  0
   -9.0047   15.8173   64.6616 H   0  0  0  0  0  0  0  0  0  0  0  0
   -8.6349   17.0455   67.0646 H   0  0  0  0  0  0  0  0  0  0  0  0
   -9.7158   17.7638   65.7573 H   0  0  0  0  0  0  0  0  0  0  0  0
  -11.4899   17.6262   67.1985 H   0  0  0  0  0  0  0  0  0  0  0  0
  -10.5107   16.6852   68.4148 H   0  0  0  0  0  0  0  0  0  0  0  0
  -12.2386   13.2917   69.3764 H   0  0  0  0  0  0  0  0  0  0  0  0
  -13.3092   14.4395   68.5646 H   0  0  0  0  0  0  0  0  0  0  0  0
  1  2  2  0  0  0  0
  2  3  1  0  0  0  0
  3  4  1  0  0  0  0
  4  5  1  0  0  0  0
  5  6  2  0  0  0  0
  6  7  1  0  0  0  0
  7  8  1  0  0  0  0
  8  9  2  0  0  0  0
  4 10  1  0  0  0  0
 10 11  1  0  0  0  0
 11 12  1  0  0  0  0
  2 13  1  0  0  0  0
 12  3  1  0  0  0  0
  9  5  1  0  0  0  0
  3 14  1  0  0  0  0
  4 15  1  0  0  0  0
  6 16  1  0  0  0  0
  8 17  1  0  0  0  0
  9 18  1  0  0  0  0
 10 19  1  0  0  0  0
 10 20  1  0  0  0  0
 11 21  1  0  0  0  0
 11 22  1  0  0  0  0
 12 23  1  0  0  0  0
 12 24  1  0  0  0  0
 13 25  1  0  0  0  0
 13 26  1  0  0  0  0
M  END
> <Gold.Version>
2022.1.0

> <Gold.Id.Protein>
6LU7|6LU7_protein|mol2

> <Gold.PLP.Fitness>
33.3976

> <Gold.PLP.PLP>
-28.4967

> <Gold.PLP.part.hbond>
-0.8655

> <Gold.PLP.part.metal>
0.0000

> <Gold.PLP.part.buried>
-4.2278

> <Gold.PLP.part.nonpolar>
-23.9764

> <Gold.PLP.part.repulsive>
0.1131

> <Gold.PLP.ligand.clash>
0.0000

> <Gold.PLP.ligand.torsion>
0.3070

> <Gold.PLP.Chemscore.Hbond>
1.0000

> <Gold.PLP.Chemscore.CHOScore>
0.8211

> <Gold.PLP.Chemscore.Metal>
0.0000

> <Gold.Chemscore.Hbonds>
donor molecule, donor type, donor heavy atom, donor atom, acceptor molecule, acceptor atom, score
      L1  H    13    26       P1  1266  1.00
      L1  C     6    16       P1  1262  0.82

> <Gold.PLP.Chemscore.Internal.Correction>
0.0515

> <Gold.Protein.RotatedTorsions>
[ 3973 1471 1470 1467 ] final  -31.04 input   60.00 | X-H torsion
[ 3372  414  413  411 ] final  105.19 input   60.00 | X-H torsion
[ 4268 1114 1113 1110 ] final   42.55 input   59.99 | X-H torsion
[ 4409  924  923  921 ] final   82.27 input   59.99 | X-H torsion
[ 4183 1244 1243 1241 ] final -170.38 input   59.99 | X-H torsion
[ 3800  178  177  174 ] final  -58.54 input   60.00 | X-H torsion
[ 3793  171  170  167 ] final  171.82 input   60.00 | X-H torsion
[ 3576  185  184  181 ] final  -42.50 input   60.00 | X-H torsion
[ 3523  346  345  342 ] final  -59.44 input   60.01 | X-H torsion
[ 3515  339  338  335 ] final -122.34 input   60.00 | X-H torsion
[ 3663  154  153  150 ] final  114.88 input   60.00 | X-H torsion
[ 4280 1130 1129 1126 ] final  102.04 input   60.00 | X-H torsion

> <Gold.Protein.ActiveResidues>
 VAL20   THR21   CYS22   GLY23   THR24   THR25   THR26   LEU27   ASN28   PRO39  
 ARG40   HIS41   VAL42   CYS44   THR45   SER46   ASP48   MET49   LEU50   PRO52  
 TYR54   TYR118  ASN119  ILE136  GLY138  SER139  PHE140  LEU141  ASN142  GLY143 
 SER144  CYS145  GLY146  SER147  TYR161  HIS163  HIS164  MET165  GLU166  LEU167 
 PRO168  THR169  GLY170  VAL171  HIS172  ALA173  PHE181  PHE185  VAL186  ASP187 
 ARG188  GLN189  THR190  ALA191  GLN192  ALA193 

> <Gold.Protein.RotatedAtoms>
  -14.0825   17.3910   76.3228 H   0  0  0  0  0  0  0  0  0  0  0  0  # atno 3372 bound_to 414 
   -2.7251   21.0367   75.7163 H   0  0  0  0  0  0  0  0  0  0  0  0  # atno 3515 bound_to 339 
   -3.4531   17.0897   72.6173 H   0  0  0  0  0  0  0  0  0  0  0  0  # atno 3523 bound_to 346 
   -8.5389   25.1939   63.6040 H   0  0  0  0  0  0  0  0  0  0  0  0  # atno 3576 bound_to 185 
   -7.7656   29.9834   64.9573 H   0  0  0  0  0  0  0  0  0  0  0  0  # atno 3663 bound_to 154 
   -1.8469   23.7151   72.2035 H   0  0  0  0  0  0  0  0  0  0  0  0  # atno 3793 bound_to 171 
   -6.4890   22.4997   71.3780 H   0  0  0  0  0  0  0  0  0  0  0  0  # atno 3800 bound_to 178 
  -14.9710    8.6422   76.9377 H   0  0  0  0  0  0  0  0  0  0  0  0  # atno 3973 bound_to 1471
  -19.8732   13.6635   63.2361 H   0  0  0  0  0  0  0  0  0  0  0  0  # atno 4183 bound_to 1244
  -13.8456   16.4012   61.9034 H   0  0  0  0  0  0  0  0  0  0  0  0  # atno 4268 bound_to 1114
  -15.5203   19.1197   59.5290 H   0  0  0  0  0  0  0  0  0  0  0  0  # atno 4280 bound_to 1130
  -10.5737   14.9388   56.6052 H   0  0  0  0  0  0  0  0  0  0  0  0  # atno 4409 bound_to 924 
  -15.4836    8.6821   78.4816 LP  0  0  0  0  0  0  0  0  0  0  0  0  # atno 4696 bound_to 1471
  -15.5823    7.2978   77.6209 LP  0  0  0  0  0  0  0  0  0  0  0  0  # atno 4697 bound_to 1471
  -14.4867   18.3415   75.0653 LP  0  0  0  0  0  0  0  0  0  0  0  0  # atno 4731 bound_to 414 
  -15.5312   17.2079   75.6045 LP  0  0  0  0  0  0  0  0  0  0  0  0  # atno 4732 bound_to 414 
  -12.3940   15.6989   61.6857 LP  0  0  0  0  0  0  0  0  0  0  0  0  # atno 4733 bound_to 1114
  -13.6709   15.2395   60.7774 LP  0  0  0  0  0  0  0  0  0  0  0  0  # atno 4734 bound_to 1114
  -12.1208   15.4050   56.7976 LP  0  0  0  0  0  0  0  0  0  0  0  0  # atno 4763 bound_to 924 
  -11.1752   15.1446   58.1032 LP  0  0  0  0  0  0  0  0  0  0  0  0  # atno 4764 bound_to 924 
  -20.8692   12.3871   63.3999 LP  0  0  0  0  0  0  0  0  0  0  0  0  # atno 4771 bound_to 1244
  -20.6283   13.4046   64.6542 LP  0  0  0  0  0  0  0  0  0  0  0  0  # atno 4772 bound_to 1244
   -7.6912   22.9723   72.3676 LP  0  0  0  0  0  0  0  0  0  0  0  0  # atno 4775 bound_to 178 
   -6.4381   23.9745   72.0639 LP  0  0  0  0  0  0  0  0  0  0  0  0  # atno 4776 bound_to 178 
   -3.4199   23.8509   71.8097 LP  0  0  0  0  0  0  0  0  0  0  0  0  # atno 4779 bound_to 171 
   -2.7005   25.0011   72.7186 LP  0  0  0  0  0  0  0  0  0  0  0  0  # atno 4780 bound_to 171 
   -7.1626   25.8810   63.0734 LP  0  0  0  0  0  0  0  0  0  0  0  0  # atno 4783 bound_to 185 
   -8.2458   26.7631   63.9191 LP  0  0  0  0  0  0  0  0  0  0  0  0  # atno 4784 bound_to 185 
   -1.8470   17.2707   72.8067 LP  0  0  0  0  0  0  0  0  0  0  0  0  # atno 4785 bound_to 346 
   -2.8585   18.5002   73.1696 LP  0  0  0  0  0  0  0  0  0  0  0  0  # atno 4786 bound_to 346 
   -3.1290   22.2945   74.7660 LP  0  0  0  0  0  0  0  0  0  0  0  0  # atno 4787 bound_to 339 
   -3.6173   20.7851   74.3788 LP  0  0  0  0  0  0  0  0  0  0  0  0  # atno 4788 bound_to 339 
   -8.3889   28.5464   65.3984 LP  0  0  0  0  0  0  0  0  0  0  0  0  # atno 4797 bound_to 154 
   -6.7706   28.7624   65.3663 LP  0  0  0  0  0  0  0  0  0  0  0  0  # atno 4798 bound_to 154 

$$$$
