unknown|prepared_Mpro-x0104|sdf|1|dock5
  -GOLD-   5 72214353D 1   1.00000     0.00000

 29 30  0  0  0  0  0  0  0  0  1 V2000
   -7.5169   18.9539   66.0582 C   0  0  0  0  0  0  0  0  0  0  0  0
   -8.6709   18.1663   66.4915 C   0  0  0  0  0  0  0  0  0  0  0  0
   -9.0158   17.1730   65.7941 O   0  0  0  0  0  0  0  0  0  0  0  0
   -9.4452   18.4322   67.6486 N   0  0  0  0  0  0  0  0  0  0  0  0
  -10.5652   17.6453   68.0444 C   0  0  0  0  0  0  0  0  0  0  0  0
  -10.4694   17.0876   69.4297 C   0  0  0  0  0  0  0  0  0  0  0  0
  -11.3476   15.9387   69.6737 C   0  0  0  0  0  0  0  0  0  0  0  0
  -11.8186   14.9864   68.8004 C   0  0  0  0  0  0  0  0  0  0  0  0
  -12.6035   14.1012   69.4421 N   0  0  0  0  0  0  0  0  0  0  0  0
  -12.6397   14.4826   70.7327 C   0  0  0  0  0  0  0  0  0  0  0  0
  -13.3043   13.9066   71.7948 C   0  0  0  0  0  0  0  0  0  0  0  0
  -13.1968   14.4794   73.0559 C   0  0  0  0  0  0  0  0  0  0  0  0
  -12.4274   15.6268   73.2630 C   0  0  0  0  0  0  0  0  0  0  0  0
  -12.3015   16.2073   74.4699 F   0  0  0  0  0  0  0  0  0  0  0  0
  -11.7834   16.1660   72.1771 C   0  0  0  0  0  0  0  0  0  0  0  0
  -11.8714   15.6181   70.9086 C   0  0  0  0  0  0  0  0  0  0  0  0
   -7.5704   20.0284   66.3552 H   0  0  0  0  0  0  0  0  0  0  0  0
   -7.5016   18.9536   64.9437 H   0  0  0  0  0  0  0  0  0  0  0  0
   -6.5502   18.5775   66.4477 H   0  0  0  0  0  0  0  0  0  0  0  0
   -9.1657   19.2502   68.2279 H   0  0  0  0  0  0  0  0  0  0  0  0
  -11.4819   18.2568   67.9245 H   0  0  0  0  0  0  0  0  0  0  0  0
  -10.7041   16.7708   67.3492 H   0  0  0  0  0  0  0  0  0  0  0  0
  -10.6059   17.8764   70.1941 H   0  0  0  0  0  0  0  0  0  0  0  0
   -9.4064   16.7320   69.5682 H   0  0  0  0  0  0  0  0  0  0  0  0
  -11.6096   14.9262   67.7451 H   0  0  0  0  0  0  0  0  0  0  0  0
  -13.0793   13.2858   68.9973 H   0  0  0  0  0  0  0  0  0  0  0  0
  -13.9148   13.0110   71.6742 H   0  0  0  0  0  0  0  0  0  0  0  0
  -13.7134   14.0308   73.8782 H   0  0  0  0  0  0  0  0  0  0  0  0
  -11.1840   17.0634   72.3496 H   0  0  0  0  0  0  0  0  0  0  0  0
  1  2  1  0  0  0  0
  2  3  2  0  0  0  0
  2  4  1  0  0  0  0
  4  5  1  0  0  0  0
  5  6  1  0  0  0  0
  6  7  1  0  0  0  0
  7  8  2  0  0  0  0
  8  9  1  0  0  0  0
  9 10  1  0  0  0  0
 10 11  2  0  0  0  0
 11 12  1  0  0  0  0
 12 13  2  0  0  0  0
 13 14  1  0  0  0  0
 13 15  1  0  0  0  0
 15 16  2  0  0  0  0
 16  7  1  0  0  0  0
 10 16  1  0  0  0  0
  1 17  1  0  0  0  0
  1 18  1  0  0  0  0
  1 19  1  0  0  0  0
  4 20  1  0  0  0  0
  5 21  1  0  0  0  0
  5 22  1  0  0  0  0
  6 23  1  0  0  0  0
  6 24  1  0  0  0  0
  8 25  1  0  0  0  0
  9 26  1  0  0  0  0
 11 27  1  0  0  0  0
 12 28  1  0  0  0  0
 15 29  1  0  0  0  0
M  END
> <Gold.Version>
2022.1.0

> <Gold.Id.Protein>
6LU7|6LU7_protein|mol2

> <Gold.PLP.Fitness>
51.7218

> <Gold.PLP.PLP>
-49.6669

> <Gold.PLP.part.hbond>
-1.9392

> <Gold.PLP.part.metal>
0.0000

> <Gold.PLP.part.buried>
-5.8481

> <Gold.PLP.part.nonpolar>
-42.9966

> <Gold.PLP.part.repulsive>
0.0795

> <Gold.PLP.ligand.clash>
0.0000

> <Gold.PLP.ligand.torsion>
0.4755

> <Gold.PLP.Chemscore.Hbond>
1.0000

> <Gold.PLP.Chemscore.CHOScore>
0.0000

> <Gold.PLP.Chemscore.Metal>
0.0000

> <Gold.Chemscore.Hbonds>
donor molecule, donor type, donor heavy atom, donor atom, acceptor molecule, acceptor atom, score
      P1  H  1105  4261       L1     3  1.00

> <Gold.PLP.Chemscore.Internal.Correction>
0.0059

> <Gold.Protein.RotatedTorsions>
[ 3973 1471 1470 1467 ] final  -45.16 input   60.00 | X-H torsion
[ 3372  414  413  411 ] final  -35.25 input   60.00 | X-H torsion
[ 4268 1114 1113 1110 ] final  153.75 input   59.99 | X-H torsion
[ 4409  924  923  921 ] final   88.30 input   59.99 | X-H torsion
[ 4183 1244 1243 1241 ] final  -19.02 input   59.99 | X-H torsion
[ 3800  178  177  174 ] final  -75.11 input   60.00 | X-H torsion
[ 3793  171  170  167 ] final  -82.48 input   60.00 | X-H torsion
[ 3576  185  184  181 ] final    5.43 input   60.00 | X-H torsion
[ 3523  346  345  342 ] final -155.32 input   60.01 | X-H torsion
[ 3515  339  338  335 ] final -114.86 input   60.00 | X-H torsion
[ 3663  154  153  150 ] final   13.57 input   60.00 | X-H torsion
[ 4280 1130 1129 1126 ] final -176.83 input   60.00 | X-H torsion

> <Gold.Protein.ActiveResidues>
 VAL20   THR21   CYS22   GLY23   THR24   THR25   THR26   LEU27   ASN28   PRO39  
 ARG40   HIS41   VAL42   CYS44   THR45   SER46   ASP48   MET49   LEU50   PRO52  
 TYR54   TYR118  ASN119  ILE136  GLY138  SER139  PHE140  LEU141  ASN142  GLY143 
 SER144  CYS145  GLY146  SER147  TYR161  HIS163  HIS164  MET165  GLU166  LEU167 
 PRO168  THR169  GLY170  VAL171  HIS172  ALA173  PHE181  PHE185  VAL186  ASP187 
 ARG188  GLN189  THR190  ALA191  GLN192  ALA193 

> <Gold.Protein.RotatedAtoms>
  -14.7935   18.2587   74.9640 H   0  0  0  0  0  0  0  0  0  0  0  0  # atno 3372 bound_to 414 
   -2.7652   20.9269   75.6809 H   0  0  0  0  0  0  0  0  0  0  0  0  # atno 3515 bound_to 339 
   -2.0696   16.9714   72.6839 H   0  0  0  0  0  0  0  0  0  0  0  0  # atno 3523 bound_to 346 
   -8.8165   25.8167   63.9407 H   0  0  0  0  0  0  0  0  0  0  0  0  # atno 3576 bound_to 185 
   -8.5277   28.8054   65.3152 H   0  0  0  0  0  0  0  0  0  0  0  0  # atno 3663 bound_to 154 
   -2.4747   24.9516   72.7548 H   0  0  0  0  0  0  0  0  0  0  0  0  # atno 3793 bound_to 171 
   -6.7097   22.3627   71.4507 H   0  0  0  0  0  0  0  0  0  0  0  0  # atno 3800 bound_to 178 
  -14.9684    8.8227   77.0804 H   0  0  0  0  0  0  0  0  0  0  0  0  # atno 3973 bound_to 1471
  -20.9027   12.9861   64.5675 H   0  0  0  0  0  0  0  0  0  0  0  0  # atno 4183 bound_to 1244
  -13.7913   15.3132   60.8080 H   0  0  0  0  0  0  0  0  0  0  0  0  # atno 4268 bound_to 1114
  -15.9026   18.6213   58.4859 H   0  0  0  0  0  0  0  0  0  0  0  0  # atno 4280 bound_to 1130
  -10.5208   14.9244   56.6869 H   0  0  0  0  0  0  0  0  0  0  0  0  # atno 4409 bound_to 924 
  -15.5656    8.4780   78.5543 LP  0  0  0  0  0  0  0  0  0  0  0  0  # atno 4696 bound_to 1471
  -15.5029    7.3202   77.4044 LP  0  0  0  0  0  0  0  0  0  0  0  0  # atno 4697 bound_to 1471
  -15.3961   17.0431   75.8625 LP  0  0  0  0  0  0  0  0  0  0  0  0  # atno 4731 bound_to 414 
  -13.9057   17.6325   76.1756 LP  0  0  0  0  0  0  0  0  0  0  0  0  # atno 4732 bound_to 414 
  -13.7308   16.4372   61.9831 LP  0  0  0  0  0  0  0  0  0  0  0  0  # atno 4733 bound_to 1114
  -12.3889   15.5969   61.5831 LP  0  0  0  0  0  0  0  0  0  0  0  0  # atno 4734 bound_to 1114
  -12.0795   15.3910   56.7086 LP  0  0  0  0  0  0  0  0  0  0  0  0  # atno 4763 bound_to 924 
  -11.2699   15.1731   58.1099 LP  0  0  0  0  0  0  0  0  0  0  0  0  # atno 4764 bound_to 924 
  -19.8807   13.8965   63.6873 LP  0  0  0  0  0  0  0  0  0  0  0  0  # atno 4771 bound_to 1244
  -20.5800   12.5774   63.0258 LP  0  0  0  0  0  0  0  0  0  0  0  0  # atno 4772 bound_to 1244
   -7.6494   23.2232   72.4630 LP  0  0  0  0  0  0  0  0  0  0  0  0  # atno 4775 bound_to 178 
   -6.2576   23.8614   71.8954 LP  0  0  0  0  0  0  0  0  0  0  0  0  # atno 4776 bound_to 178 
   -1.9695   23.5613   72.0767 LP  0  0  0  0  0  0  0  0  0  0  0  0  # atno 4779 bound_to 171 
   -3.5186   24.0453   71.8964 LP  0  0  0  0  0  0  0  0  0  0  0  0  # atno 4780 bound_to 171 
   -7.5615   25.2273   63.0889 LP  0  0  0  0  0  0  0  0  0  0  0  0  # atno 4783 bound_to 185 
   -7.5674   26.7895   63.5645 LP  0  0  0  0  0  0  0  0  0  0  0  0  # atno 4784 bound_to 185 
   -2.4665   18.4667   73.1885 LP  0  0  0  0  0  0  0  0  0  0  0  0  # atno 4785 bound_to 346 
   -3.6324   17.4233   72.7208 LP  0  0  0  0  0  0  0  0  0  0  0  0  # atno 4786 bound_to 346 
   -3.0617   22.3053   74.8684 LP  0  0  0  0  0  0  0  0  0  0  0  0  # atno 4787 bound_to 339 
   -3.6441   20.8848   74.3120 LP  0  0  0  0  0  0  0  0  0  0  0  0  # atno 4788 bound_to 339 
   -6.9318   28.5132   65.4420 LP  0  0  0  0  0  0  0  0  0  0  0  0  # atno 4797 bound_to 154 
   -7.4603   29.9820   64.9623 LP  0  0  0  0  0  0  0  0  0  0  0  0  # atno 4798 bound_to 154 

$$$$
