unknown|prepared_Mpro-x0426|sdf|1|dock5
  -GOLD-   5 72214353D 1   1.00000     0.00000

 31 32  0  0  0  0  0  0  0  0  1 V2000
  -10.2830   10.3027   66.2774 F   0  0  0  0  0  0  0  0  0  0  0  0
  -10.8866   11.4236   65.8140 C   0  0  0  0  0  0  0  0  0  0  0  0
  -10.6914   11.6576   64.4571 C   0  0  0  0  0  0  0  0  0  0  0  0
  -11.2532   12.7559   63.8867 C   0  0  0  0  0  0  0  0  0  0  0  0
  -12.0014   13.6144   64.6546 C   0  0  0  0  0  0  0  0  0  0  0  0
  -12.1840   13.3668   65.9968 C   0  0  0  0  0  0  0  0  0  0  0  0
  -11.6207   12.2479   66.6131 C   0  0  0  0  0  0  0  0  0  0  0  0
  -11.8310   12.0212   68.0103 C   0  0  0  0  0  0  0  0  0  0  0  0
  -12.1104   10.8218   68.3852 O   0  0  0  0  0  0  0  0  0  0  0  0
  -11.7739   12.9561   69.0717 N   0  0  0  0  0  0  0  0  0  0  0  0
  -12.0156   12.5620   70.4493 C   0  0  0  0  0  0  0  0  0  0  0  0
  -13.2008   13.2142   71.0800 C   0  0  0  0  0  0  0  0  0  0  0  0
  -12.7982   14.4051   71.8666 C   0  0  0  0  0  0  0  0  0  0  0  0
  -12.0413   15.4170   71.3421 C   0  0  0  0  0  0  0  0  0  0  0  0
  -11.7010   16.4933   72.1299 C   0  0  0  0  0  0  0  0  0  0  0  0
  -12.1046   16.5600   73.4079 N   0  0  0  0  0  0  0  0  0  0  0  0
  -12.8451   15.5938   73.9601 C   0  0  0  0  0  0  0  0  0  0  0  0
  -13.2002   14.4959   73.1797 C   0  0  0  0  0  0  0  0  0  0  0  0
  -10.0942   10.9707   63.8485 H   0  0  0  0  0  0  0  0  0  0  0  0
  -11.0977   12.9357   62.8225 H   0  0  0  0  0  0  0  0  0  0  0  0
  -12.4530   14.4903   64.2144 H   0  0  0  0  0  0  0  0  0  0  0  0
  -12.7817   14.0756   66.5523 H   0  0  0  0  0  0  0  0  0  0  0  0
  -11.5521   13.9434   68.8390 H   0  0  0  0  0  0  0  0  0  0  0  0
  -11.1242   12.8359   71.0461 H   0  0  0  0  0  0  0  0  0  0  0  0
  -12.1052   11.4503   70.5427 H   0  0  0  0  0  0  0  0  0  0  0  0
  -13.6544   12.4894   71.8011 H   0  0  0  0  0  0  0  0  0  0  0  0
  -14.0164   13.4666   70.3707 H   0  0  0  0  0  0  0  0  0  0  0  0
  -11.7025   15.3827   70.3013 H   0  0  0  0  0  0  0  0  0  0  0  0
  -11.0919   17.2910   71.6806 H   0  0  0  0  0  0  0  0  0  0  0  0
  -13.1906   15.6097   74.9864 H   0  0  0  0  0  0  0  0  0  0  0  0
  -13.8030   13.7166   73.6409 H   0  0  0  0  0  0  0  0  0  0  0  0
  1  2  1  0  0  0  0
  2  3  2  0  0  0  0
  3  4  1  0  0  0  0
  4  5  2  0  0  0  0
  5  6  1  0  0  0  0
  6  7  2  0  0  0  0
  7  8  1  0  0  0  0
  8  9  2  0  0  0  0
  8 10  1  0  0  0  0
 10 11  1  0  0  0  0
 11 12  1  0  0  0  0
 12 13  1  0  0  0  0
 13 14  2  0  0  0  0
 14 15  1  0  0  0  0
 15 16  2  0  0  0  0
 16 17  1  0  0  0  0
 17 18  2  0  0  0  0
  2  7  1  0  0  0  0
 13 18  1  0  0  0  0
  3 19  1  0  0  0  0
  4 20  1  0  0  0  0
  5 21  1  0  0  0  0
  6 22  1  0  0  0  0
 10 23  1  0  0  0  0
 11 24  1  0  0  0  0
 11 25  1  0  0  0  0
 12 26  1  0  0  0  0
 12 27  1  0  0  0  0
 14 28  1  0  0  0  0
 15 29  1  0  0  0  0
 17 30  1  0  0  0  0
 18 31  1  0  0  0  0
M  END
> <Gold.Version>
2022.1.0

> <Gold.Id.Protein>
6LU7|6LU7_protein|mol2

> <Gold.PLP.Fitness>
54.6973

> <Gold.PLP.PLP>
-51.2169

> <Gold.PLP.part.hbond>
-1.0000

> <Gold.PLP.part.metal>
0.0000

> <Gold.PLP.part.buried>
-7.9775

> <Gold.PLP.part.nonpolar>
-44.8606

> <Gold.PLP.part.repulsive>
0.3281

> <Gold.PLP.ligand.clash>
0.0000

> <Gold.PLP.ligand.torsion>
1.0089

> <Gold.PLP.Chemscore.Hbond>
0.8000

> <Gold.PLP.Chemscore.CHOScore>
1.0164

> <Gold.PLP.Chemscore.Metal>
0.0000

> <Gold.Chemscore.Hbonds>
donor molecule, donor type, donor heavy atom, donor atom, acceptor molecule, acceptor atom, score
      P1  H  1281  4132       L1     9  0.80
      L1  C    17    30       P1  1441  0.97
      L1  C    17    30       P1   414  0.05

> <Gold.PLP.Chemscore.Internal.Correction>
0.0490

> <Gold.Protein.RotatedTorsions>
[ 3973 1471 1470 1467 ] final  -14.05 input   60.00 | X-H torsion
[ 3372  414  413  411 ] final  -21.52 input   60.00 | X-H torsion
[ 4268 1114 1113 1110 ] final -148.47 input   59.99 | X-H torsion
[ 4409  924  923  921 ] final  142.71 input   59.99 | X-H torsion
[ 4183 1244 1243 1241 ] final  -82.60 input   59.99 | X-H torsion
[ 3800  178  177  174 ] final  115.75 input   60.00 | X-H torsion
[ 3793  171  170  167 ] final -114.62 input   60.00 | X-H torsion
[ 3576  185  184  181 ] final   48.46 input   60.00 | X-H torsion
[ 3523  346  345  342 ] final -144.12 input   60.01 | X-H torsion
[ 3515  339  338  335 ] final  135.40 input   60.00 | X-H torsion
[ 3663  154  153  150 ] final   53.36 input   60.00 | X-H torsion
[ 4280 1130 1129 1126 ] final   21.44 input   60.00 | X-H torsion

> <Gold.Protein.ActiveResidues>
 VAL20   THR21   CYS22   GLY23   THR24   THR25   THR26   LEU27   ASN28   PRO39  
 ARG40   HIS41   VAL42   CYS44   THR45   SER46   ASP48   MET49   LEU50   PRO52  
 TYR54   TYR118  ASN119  ILE136  GLY138  SER139  PHE140  LEU141  ASN142  GLY143 
 SER144  CYS145  GLY146  SER147  TYR161  HIS163  HIS164  MET165  GLU166  LEU167 
 PRO168  THR169  GLY170  VAL171  HIS172  ALA173  PHE181  PHE185  VAL186  ASP187 
 ARG188  GLN189  THR190  ALA191  GLN192  ALA193 

> <Gold.Protein.RotatedAtoms>
  -14.5879   18.3214   75.0267 H   0  0  0  0  0  0  0  0  0  0  0  0  # atno 3372 bound_to 414 
   -2.9756   22.2882   75.0118 H   0  0  0  0  0  0  0  0  0  0  0  0  # atno 3515 bound_to 339 
   -2.2118   16.8676   72.6353 H   0  0  0  0  0  0  0  0  0  0  0  0  # atno 3523 bound_to 346 
   -8.5946   26.4620   64.0172 H   0  0  0  0  0  0  0  0  0  0  0  0  # atno 3576 bound_to 185 
   -8.5165   29.4124   65.1221 H   0  0  0  0  0  0  0  0  0  0  0  0  # atno 3663 bound_to 154 
   -2.0296   24.6870   72.7313 H   0  0  0  0  0  0  0  0  0  0  0  0  # atno 3793 bound_to 171 
   -7.1829   23.8500   72.4700 H   0  0  0  0  0  0  0  0  0  0  0  0  # atno 3800 bound_to 178 
  -15.0038    8.3914   76.8258 H   0  0  0  0  0  0  0  0  0  0  0  0  # atno 3973 bound_to 1471
  -20.2961   13.7565   64.4598 H   0  0  0  0  0  0  0  0  0  0  0  0  # atno 4183 bound_to 1244
  -12.9132   15.1247   60.9163 H   0  0  0  0  0  0  0  0  0  0  0  0  # atno 4268 bound_to 1114
  -15.9051   20.2542   59.3523 H   0  0  0  0  0  0  0  0  0  0  0  0  # atno 4280 bound_to 1130
  -10.4640   14.9228   57.5410 H   0  0  0  0  0  0  0  0  0  0  0  0  # atno 4409 bound_to 924 
  -15.3744    8.8889   78.3302 LP  0  0  0  0  0  0  0  0  0  0  0  0  # atno 4696 bound_to 1471
  -15.6586    7.3437   77.8849 LP  0  0  0  0  0  0  0  0  0  0  0  0  # atno 4697 bound_to 1471
  -15.4978   17.1466   75.6899 LP  0  0  0  0  0  0  0  0  0  0  0  0  # atno 4731 bound_to 414 
  -14.0111   17.4659   76.2850 LP  0  0  0  0  0  0  0  0  0  0  0  0  # atno 4732 bound_to 414 
  -14.2189   15.9898   61.3575 LP  0  0  0  0  0  0  0  0  0  0  0  0  # atno 4733 bound_to 1114
  -12.7851   16.2342   62.0997 LP  0  0  0  0  0  0  0  0  0  0  0  0  # atno 4734 bound_to 1114
  -11.3949   15.1765   56.2306 LP  0  0  0  0  0  0  0  0  0  0  0  0  # atno 4763 bound_to 924 
  -12.0118   15.3892   57.7276 LP  0  0  0  0  0  0  0  0  0  0  0  0  # atno 4764 bound_to 924 
  -20.0320   13.2734   62.9285 LP  0  0  0  0  0  0  0  0  0  0  0  0  # atno 4771 bound_to 1244
  -21.0397   12.4246   63.8932 LP  0  0  0  0  0  0  0  0  0  0  0  0  # atno 4772 bound_to 1244
   -6.0586   23.2358   71.4666 LP  0  0  0  0  0  0  0  0  0  0  0  0  # atno 4775 bound_to 178 
   -7.3720   22.3511   71.8653 LP  0  0  0  0  0  0  0  0  0  0  0  0  # atno 4776 bound_to 178 
   -2.3953   23.3776   71.8370 LP  0  0  0  0  0  0  0  0  0  0  0  0  # atno 4779 bound_to 171 
   -3.5411   24.4955   72.1598 LP  0  0  0  0  0  0  0  0  0  0  0  0  # atno 4780 bound_to 171 
   -8.1700   25.0369   63.3565 LP  0  0  0  0  0  0  0  0  0  0  0  0  # atno 4783 bound_to 185 
   -7.1823   26.3301   63.2197 LP  0  0  0  0  0  0  0  0  0  0  0  0  # atno 4784 bound_to 185 
   -2.2956   18.3995   73.1778 LP  0  0  0  0  0  0  0  0  0  0  0  0  # atno 4785 bound_to 346 
   -3.6601   17.5951   72.7805 LP  0  0  0  0  0  0  0  0  0  0  0  0  # atno 4786 bound_to 346 
   -3.6672   21.0346   74.2384 LP  0  0  0  0  0  0  0  0  0  0  0  0  # atno 4787 bound_to 339 
   -2.8267   20.7845   75.6159 LP  0  0  0  0  0  0  0  0  0  0  0  0  # atno 4788 bound_to 339 
   -7.4928   28.2132   65.5248 LP  0  0  0  0  0  0  0  0  0  0  0  0  # atno 4797 bound_to 154 
   -6.9106   29.6707   65.0738 LP  0  0  0  0  0  0  0  0  0  0  0  0  # atno 4798 bound_to 154 

$$$$
