unknown|prepared_Mpro-x0991|sdf|1|dock2
  -GOLD-   5 72214353D 1   1.00000     0.00000

 13 12  0  0  0  0  0  0  0  0  1 V2000
  -12.2999   15.3232   73.3366 C   0  0  0  0  0  0  0  0  0  0  0  0
  -13.5178   14.5360   72.8846 C   0  0  0  0  0  0  0  0  0  0  0  0
  -13.9006   14.8383   71.4953 C   0  0  0  0  0  0  0  0  0  0  0  0
  -13.0967   14.7041   70.5015 N   0  0  0  0  0  0  0  0  0  0  0  0
  -15.2081   15.2982   71.2230 N   0  0  0  0  0  0  0  0  0  0  0  0
  -12.5189   15.8649   74.2676 H   0  0  0  0  0  0  0  0  0  0  0  0
  -11.9845   16.0653   72.5861 H   0  0  0  0  0  0  0  0  0  0  0  0
  -11.4301   14.6285   73.4710 H   0  0  0  0  0  0  0  0  0  0  0  0
  -13.3521   13.4306   73.0201 H   0  0  0  0  0  0  0  0  0  0  0  0
  -14.3943   14.7716   73.5318 H   0  0  0  0  0  0  0  0  0  0  0  0
  -12.1231   14.3701   70.6369 H   0  0  0  0  0  0  0  0  0  0  0  0
  -15.9056   15.4253   72.0010 H   0  0  0  0  0  0  0  0  0  0  0  0
  -15.4610   15.5097   70.2129 H   0  0  0  0  0  0  0  0  0  0  0  0
  1  2  1  0  0  0  0
  2  3  1  0  0  0  0
  3  4  2  0  0  0  0
  3  5  1  0  0  0  0
  1  6  1  0  0  0  0
  1  7  1  0  0  0  0
  1  8  1  0  0  0  0
  2  9  1  0  0  0  0
  2 10  1  0  0  0  0
  4 11  1  0  0  0  0
  5 12  1  0  0  0  0
  5 13  1  0  0  0  0
M  END
> <Gold.Version>
2022.1.0

> <Gold.Id.Protein>
6LU7|6LU7_protein|mol2

> <Gold.PLP.Fitness>
23.3982

> <Gold.PLP.PLP>
-20.4217

> <Gold.PLP.part.hbond>
-1.6917

> <Gold.PLP.part.metal>
0.0000

> <Gold.PLP.part.buried>
-4.1873

> <Gold.PLP.part.nonpolar>
-14.9135

> <Gold.PLP.part.repulsive>
0.1556

> <Gold.PLP.ligand.clash>
0.0000

> <Gold.PLP.ligand.torsion>
0.0118

> <Gold.PLP.Chemscore.Hbond>
1.0000

> <Gold.PLP.Chemscore.CHOScore>
0.0000

> <Gold.PLP.Chemscore.Metal>
0.0000

> <Gold.Chemscore.Hbonds>
donor molecule, donor type, donor heavy atom, donor atom, acceptor molecule, acceptor atom, score
      L1  H     5    13       P1  1266  1.00

> <Gold.PLP.Chemscore.Internal.Correction>
0.0000

> <Gold.Protein.RotatedTorsions>
[ 3973 1471 1470 1467 ] final  -95.98 input   60.00 | X-H torsion
[ 3372  414  413  411 ] final  -88.17 input   60.00 | X-H torsion
[ 4268 1114 1113 1110 ] final   10.01 input   59.99 | X-H torsion
[ 4409  924  923  921 ] final  -29.04 input   59.99 | X-H torsion
[ 4183 1244 1243 1241 ] final  164.97 input   59.99 | X-H torsion
[ 3800  178  177  174 ] final -170.71 input   60.00 | X-H torsion
[ 3793  171  170  167 ] final  -91.77 input   60.00 | X-H torsion
[ 3576  185  184  181 ] final  132.51 input   60.00 | X-H torsion
[ 3523  346  345  342 ] final -112.15 input   60.01 | X-H torsion
[ 3515  339  338  335 ] final  -74.26 input   60.00 | X-H torsion
[ 3663  154  153  150 ] final  -37.50 input   60.00 | X-H torsion
[ 4280 1130 1129 1126 ] final  -72.38 input   60.00 | X-H torsion

> <Gold.Protein.ActiveResidues>
 VAL20   THR21   CYS22   GLY23   THR24   THR25   THR26   LEU27   ASN28   PRO39  
 ARG40   HIS41   VAL42   CYS44   THR45   SER46   ASP48   MET49   LEU50   PRO52  
 TYR54   TYR118  ASN119  ILE136  GLY138  SER139  PHE140  LEU141  ASN142  GLY143 
 SER144  CYS145  GLY146  SER147  TYR161  HIS163  HIS164  MET165  GLU166  LEU167 
 PRO168  THR169  GLY170  VAL171  HIS172  ALA173  PHE181  PHE185  VAL186  ASP187 
 ARG188  GLN189  THR190  ALA191  GLN192  ALA193 

> <Gold.Protein.RotatedAtoms>
  -15.4377   17.7464   75.0998 H   0  0  0  0  0  0  0  0  0  0  0  0  # atno 3372 bound_to 414 
   -3.0769   20.5039   75.2989 H   0  0  0  0  0  0  0  0  0  0  0  0  # atno 3515 bound_to 339 
   -2.7034   16.7373   72.5496 H   0  0  0  0  0  0  0  0  0  0  0  0  # atno 3523 bound_to 346 
   -7.4833   26.7349   63.5058 H   0  0  0  0  0  0  0  0  0  0  0  0  # atno 3576 bound_to 185 
   -7.9628   28.2598   65.5017 H   0  0  0  0  0  0  0  0  0  0  0  0  # atno 3663 bound_to 154 
   -2.3337   24.8968   72.7647 H   0  0  0  0  0  0  0  0  0  0  0  0  # atno 3793 bound_to 171 
   -7.6827   22.8604   72.3051 H   0  0  0  0  0  0  0  0  0  0  0  0  # atno 3800 bound_to 178 
  -15.1344    9.1108   77.8118 H   0  0  0  0  0  0  0  0  0  0  0  0  # atno 3973 bound_to 1471
  -19.9840   13.3737   62.9841 H   0  0  0  0  0  0  0  0  0  0  0  0  # atno 4183 bound_to 1244
  -13.3670   16.4457   62.1132 H   0  0  0  0  0  0  0  0  0  0  0  0  # atno 4268 bound_to 1114
  -16.4303   19.9561   58.1256 H   0  0  0  0  0  0  0  0  0  0  0  0  # atno 4280 bound_to 1130
  -12.0524   15.3845   56.6743 H   0  0  0  0  0  0  0  0  0  0  0  0  # atno 4409 bound_to 924 
  -15.7240    7.7041   78.3789 LP  0  0  0  0  0  0  0  0  0  0  0  0  # atno 4696 bound_to 1471
  -15.1774    7.8039   76.8433 LP  0  0  0  0  0  0  0  0  0  0  0  0  # atno 4697 bound_to 1471
  -14.7103   16.9927   76.3451 LP  0  0  0  0  0  0  0  0  0  0  0  0  # atno 4731 bound_to 414 
  -13.9427   18.1989   75.5562 LP  0  0  0  0  0  0  0  0  0  0  0  0  # atno 4732 bound_to 414 
  -12.4814   15.3501   61.2987 LP  0  0  0  0  0  0  0  0  0  0  0  0  # atno 4733 bound_to 1114
  -14.0656   15.5434   60.9531 LP  0  0  0  0  0  0  0  0  0  0  0  0  # atno 4734 bound_to 1114
  -11.3117   15.1857   58.1095 LP  0  0  0  0  0  0  0  0  0  0  0  0  # atno 4763 bound_to 924 
  -10.4951   14.9149   56.7216 LP  0  0  0  0  0  0  0  0  0  0  0  0  # atno 4764 bound_to 924 
  -21.0147   12.3940   63.7751 LP  0  0  0  0  0  0  0  0  0  0  0  0  # atno 4771 bound_to 1244
  -20.3712   13.6895   64.5327 LP  0  0  0  0  0  0  0  0  0  0  0  0  # atno 4772 bound_to 1244
   -6.5370   24.0043   72.1408 LP  0  0  0  0  0  0  0  0  0  0  0  0  # atno 4775 bound_to 178 
   -6.3902   22.5792   71.3572 LP  0  0  0  0  0  0  0  0  0  0  0  0  # atno 4776 bound_to 178 
   -2.0758   23.4847   71.9984 LP  0  0  0  0  0  0  0  0  0  0  0  0  # atno 4779 bound_to 171 
   -3.5543   24.1771   71.9647 LP  0  0  0  0  0  0  0  0  0  0  0  0  # atno 4780 bound_to 171 
   -8.8175   25.9285   63.9723 LP  0  0  0  0  0  0  0  0  0  0  0  0  # atno 4783 bound_to 185 
   -7.6541   25.1636   63.1191 LP  0  0  0  0  0  0  0  0  0  0  0  0  # atno 4784 bound_to 185 
   -1.9162   18.0573   73.0845 LP  0  0  0  0  0  0  0  0  0  0  0  0  # atno 4785 bound_to 346 
   -3.5444   18.0685   72.9601 LP  0  0  0  0  0  0  0  0  0  0  0  0  # atno 4786 bound_to 346 
   -2.7523   22.0950   75.4051 LP  0  0  0  0  0  0  0  0  0  0  0  0  # atno 4787 bound_to 339 
   -3.6396   21.5211   74.1601 LP  0  0  0  0  0  0  0  0  0  0  0  0  # atno 4788 bound_to 339 
   -6.7136   29.2608   65.2088 LP  0  0  0  0  0  0  0  0  0  0  0  0  # atno 4797 bound_to 154 
   -8.2474   29.7839   65.0076 LP  0  0  0  0  0  0  0  0  0  0  0  0  # atno 4798 bound_to 154 

$$$$
