unknown|prepared_Mpro-x0426|sdf|1|dock4
  -GOLD-   5 72214353D 1   1.00000     0.00000

 31 32  0  0  0  0  0  0  0  0  1 V2000
  -11.7001   15.0977   69.7684 F   0  0  0  0  0  0  0  0  0  0  0  0
  -12.2890   14.1937   70.5880 C   0  0  0  0  0  0  0  0  0  0  0  0
  -12.7297   14.7215   71.7969 C   0  0  0  0  0  0  0  0  0  0  0  0
  -13.3361   13.9019   72.6957 C   0  0  0  0  0  0  0  0  0  0  0  0
  -13.5038   12.5714   72.3988 C   0  0  0  0  0  0  0  0  0  0  0  0
  -13.0610   12.0663   71.1968 C   0  0  0  0  0  0  0  0  0  0  0  0
  -12.4344   12.8811   70.2520 C   0  0  0  0  0  0  0  0  0  0  0  0
  -11.9868   12.3229   69.0128 C   0  0  0  0  0  0  0  0  0  0  0  0
  -12.3062   11.1022   68.7577 O   0  0  0  0  0  0  0  0  0  0  0  0
  -11.2192   12.9401   67.9961 N   0  0  0  0  0  0  0  0  0  0  0  0
  -10.8429   12.2288   66.7862 C   0  0  0  0  0  0  0  0  0  0  0  0
  -11.3428   12.8488   65.5238 C   0  0  0  0  0  0  0  0  0  0  0  0
  -10.9409   14.2733   65.4339 C   0  0  0  0  0  0  0  0  0  0  0  0
   -9.8120   14.7628   66.0322 C   0  0  0  0  0  0  0  0  0  0  0  0
   -9.4994   16.0979   65.9104 C   0  0  0  0  0  0  0  0  0  0  0  0
  -10.2913   16.9244   65.2101 N   0  0  0  0  0  0  0  0  0  0  0  0
  -11.4031   16.4882   64.6099 C   0  0  0  0  0  0  0  0  0  0  0  0
  -11.7373   15.1404   64.7211 C   0  0  0  0  0  0  0  0  0  0  0  0
  -12.5940   15.7827   72.0296 H   0  0  0  0  0  0  0  0  0  0  0  0
  -13.6801   14.3197   73.6423 H   0  0  0  0  0  0  0  0  0  0  0  0
  -13.9836   11.9096   73.1036 H   0  0  0  0  0  0  0  0  0  0  0  0
  -13.2193   11.0125   71.0163 H   0  0  0  0  0  0  0  0  0  0  0  0
  -10.9278   13.9266   68.1376 H   0  0  0  0  0  0  0  0  0  0  0  0
  -11.2604   11.2051   66.8459 H   0  0  0  0  0  0  0  0  0  0  0  0
   -9.7337   12.0938   66.7242 H   0  0  0  0  0  0  0  0  0  0  0  0
  -12.4610   12.8297   65.5456 H   0  0  0  0  0  0  0  0  0  0  0  0
  -11.0613   12.2999   64.6011 H   0  0  0  0  0  0  0  0  0  0  0  0
   -9.1516   14.1051   66.6072 H   0  0  0  0  0  0  0  0  0  0  0  0
   -8.5859   16.4621   66.4023 H   0  0  0  0  0  0  0  0  0  0  0  0
  -12.0681   17.1219   64.0364 H   0  0  0  0  0  0  0  0  0  0  0  0
  -12.6445   14.7980   64.2279 H   0  0  0  0  0  0  0  0  0  0  0  0
  1  2  1  0  0  0  0
  2  3  2  0  0  0  0
  3  4  1  0  0  0  0
  4  5  2  0  0  0  0
  5  6  1  0  0  0  0
  6  7  2  0  0  0  0
  7  8  1  0  0  0  0
  8  9  2  0  0  0  0
  8 10  1  0  0  0  0
 10 11  1  0  0  0  0
 11 12  1  0  0  0  0
 12 13  1  0  0  0  0
 13 14  2  0  0  0  0
 14 15  1  0  0  0  0
 15 16  2  0  0  0  0
 16 17  1  0  0  0  0
 17 18  2  0  0  0  0
  2  7  1  0  0  0  0
 13 18  1  0  0  0  0
  3 19  1  0  0  0  0
  4 20  1  0  0  0  0
  5 21  1  0  0  0  0
  6 22  1  0  0  0  0
 10 23  1  0  0  0  0
 11 24  1  0  0  0  0
 11 25  1  0  0  0  0
 12 26  1  0  0  0  0
 12 27  1  0  0  0  0
 14 28  1  0  0  0  0
 15 29  1  0  0  0  0
 17 30  1  0  0  0  0
 18 31  1  0  0  0  0
M  END
> <Gold.Version>
2022.1.0

> <Gold.Id.Protein>
6LU7|6LU7_protein|mol2

> <Gold.PLP.Fitness>
52.9207

> <Gold.PLP.PLP>
-47.7977

> <Gold.PLP.part.hbond>
-1.8936

> <Gold.PLP.part.metal>
0.0000

> <Gold.PLP.part.buried>
-7.6756

> <Gold.PLP.part.nonpolar>
-39.3487

> <Gold.PLP.part.repulsive>
0.2071

> <Gold.PLP.ligand.clash>
0.0000

> <Gold.PLP.ligand.torsion>
0.4039

> <Gold.PLP.Chemscore.Hbond>
1.9588

> <Gold.PLP.Chemscore.CHOScore>
0.0000

> <Gold.PLP.Chemscore.Metal>
0.0000

> <Gold.Chemscore.Hbonds>
donor molecule, donor type, donor heavy atom, donor atom, acceptor molecule, acceptor atom, score
      P1  H  1281  4132       L1     9  0.96
      P1  H  1105  4261       L1    16  1.00

> <Gold.PLP.Chemscore.Internal.Correction>
0.0544

> <Gold.Protein.RotatedTorsions>
[ 3973 1471 1470 1467 ] final -127.03 input   60.00 | X-H torsion
[ 3372  414  413  411 ] final  136.31 input   60.00 | X-H torsion
[ 4268 1114 1113 1110 ] final    9.61 input   59.99 | X-H torsion
[ 4409  924  923  921 ] final  104.17 input   59.99 | X-H torsion
[ 4183 1244 1243 1241 ] final   -4.87 input   59.99 | X-H torsion
[ 3800  178  177  174 ] final -130.17 input   60.00 | X-H torsion
[ 3793  171  170  167 ] final  128.92 input   60.00 | X-H torsion
[ 3576  185  184  181 ] final  -74.14 input   60.00 | X-H torsion
[ 3523  346  345  342 ] final -164.07 input   60.01 | X-H torsion
[ 3515  339  338  335 ] final  -50.36 input   60.00 | X-H torsion
[ 3663  154  153  150 ] final    1.34 input   60.00 | X-H torsion
[ 4280 1130 1129 1126 ] final  166.60 input   60.00 | X-H torsion

> <Gold.Protein.ActiveResidues>
 VAL20   THR21   CYS22   GLY23   THR24   THR25   THR26   LEU27   ASN28   PRO39  
 ARG40   HIS41   VAL42   CYS44   THR45   SER46   ASP48   MET49   LEU50   PRO52  
 TYR54   TYR118  ASN119  ILE136  GLY138  SER139  PHE140  LEU141  ASN142  GLY143 
 SER144  CYS145  GLY146  SER147  TYR161  HIS163  HIS164  MET165  GLU166  LEU167 
 PRO168  THR169  GLY170  VAL171  HIS172  ALA173  PHE181  PHE185  VAL186  ASP187 
 ARG188  GLN189  THR190  ALA191  GLN192  ALA193 

> <Gold.Protein.RotatedAtoms>
  -14.4808   17.0920   76.3881 H   0  0  0  0  0  0  0  0  0  0  0  0  # atno 3372 bound_to 414 
   -3.2899   20.4450   74.9803 H   0  0  0  0  0  0  0  0  0  0  0  0  # atno 3515 bound_to 339 
   -1.9755   17.0699   72.7268 H   0  0  0  0  0  0  0  0  0  0  0  0  # atno 3523 bound_to 346 
   -8.1305   25.0400   63.3391 H   0  0  0  0  0  0  0  0  0  0  0  0  # atno 3576 bound_to 185 
   -8.4433   28.6336   65.3718 H   0  0  0  0  0  0  0  0  0  0  0  0  # atno 3663 bound_to 154 
   -2.3434   23.3929   71.8592 H   0  0  0  0  0  0  0  0  0  0  0  0  # atno 3793 bound_to 171 
   -7.4335   22.3983   71.9240 H   0  0  0  0  0  0  0  0  0  0  0  0  # atno 3800 bound_to 178 
  -15.3259    8.9520   78.2468 H   0  0  0  0  0  0  0  0  0  0  0  0  # atno 3973 bound_to 1471
  -20.9871   12.8064   64.4504 H   0  0  0  0  0  0  0  0  0  0  0  0  # atno 4183 bound_to 1244
  -13.3606   16.4449   62.1145 H   0  0  0  0  0  0  0  0  0  0  0  0  # atno 4268 bound_to 1114
  -15.7773   18.5874   58.7226 H   0  0  0  0  0  0  0  0  0  0  0  0  # atno 4280 bound_to 1130
  -10.4231   14.8993   56.9249 H   0  0  0  0  0  0  0  0  0  0  0  0  # atno 4409 bound_to 924 
  -15.6824    7.3852   77.9900 LP  0  0  0  0  0  0  0  0  0  0  0  0  # atno 4696 bound_to 1471
  -15.0261    8.2828   76.7941 LP  0  0  0  0  0  0  0  0  0  0  0  0  # atno 4697 bound_to 1471
  -14.0833   18.2950   75.3669 LP  0  0  0  0  0  0  0  0  0  0  0  0  # atno 4731 bound_to 414 
  -15.5335   17.5555   75.2370 LP  0  0  0  0  0  0  0  0  0  0  0  0  # atno 4732 bound_to 414 
  -12.4842   15.3465   61.2940 LP  0  0  0  0  0  0  0  0  0  0  0  0  # atno 4733 bound_to 1114
  -14.0692   15.5479   60.9565 LP  0  0  0  0  0  0  0  0  0  0  0  0  # atno 4734 bound_to 1114
  -11.9303   15.3424   56.5008 LP  0  0  0  0  0  0  0  0  0  0  0  0  # atno 4763 bound_to 924 
  -11.5175   15.2470   58.0779 LP  0  0  0  0  0  0  0  0  0  0  0  0  # atno 4764 bound_to 924 
  -19.9438   13.9313   63.9081 LP  0  0  0  0  0  0  0  0  0  0  0  0  # atno 4771 bound_to 1244
  -20.4318   12.7237   62.9231 LP  0  0  0  0  0  0  0  0  0  0  0  0  # atno 4772 bound_to 1244
   -7.1041   23.9029   72.4489 LP  0  0  0  0  0  0  0  0  0  0  0  0  # atno 4775 bound_to 178 
   -6.0741   23.1459   71.4328 LP  0  0  0  0  0  0  0  0  0  0  0  0  # atno 4776 bound_to 178 
   -3.5526   24.4481   72.1278 LP  0  0  0  0  0  0  0  0  0  0  0  0  # atno 4779 bound_to 171 
   -2.0678   24.7284   72.7472 LP  0  0  0  0  0  0  0  0  0  0  0  0  # atno 4780 bound_to 171 
   -7.1945   26.3672   63.2375 LP  0  0  0  0  0  0  0  0  0  0  0  0  # atno 4783 bound_to 185 
   -8.6253   26.4318   64.0218 LP  0  0  0  0  0  0  0  0  0  0  0  0  # atno 4784 bound_to 185 
   -2.6071   18.4968   73.1882 LP  0  0  0  0  0  0  0  0  0  0  0  0  # atno 4785 bound_to 346 
   -3.5865   17.2940   72.6779 LP  0  0  0  0  0  0  0  0  0  0  0  0  # atno 4786 bound_to 346 
   -2.6547   21.7935   75.6332 LP  0  0  0  0  0  0  0  0  0  0  0  0  # atno 4787 bound_to 339 
   -3.5228   21.8819   74.2529 LP  0  0  0  0  0  0  0  0  0  0  0  0  # atno 4788 bound_to 339 
   -6.8166   28.6708   65.3944 LP  0  0  0  0  0  0  0  0  0  0  0  0  # atno 4797 bound_to 154 
   -7.6605   29.9974   64.9529 LP  0  0  0  0  0  0  0  0  0  0  0  0  # atno 4798 bound_to 154 

$$$$
