unknown|prepared_Mpro-x0161|sdf|1|dock1
  -GOLD-   5 72214353D 1   1.00000     0.00000

 23 23  0  0  0  0  0  0  0  0  1 V2000
  -12.3218   16.1858   73.6036 C   0  0  0  0  0  0  0  0  0  0  0  0
  -11.9262   16.1663   72.2508 O   0  0  0  0  0  0  0  0  0  0  0  0
  -12.3362   15.2599   71.3178 C   0  0  0  0  0  0  0  0  0  0  0  0
  -13.1471   14.3623   71.6629 O   0  0  0  0  0  0  0  0  0  0  0  0
  -11.8379   15.3366   69.9440 C   0  0  0  0  0  0  0  0  0  0  0  0
  -11.1960   16.4420   69.4459 C   0  0  0  0  0  0  0  0  0  0  0  0
  -10.7230   16.5287   68.1592 C   0  0  0  0  0  0  0  0  0  0  0  0
  -10.8979   15.4487   67.3109 C   0  0  0  0  0  0  0  0  0  0  0  0
  -11.5345   14.3249   67.7702 C   0  0  0  0  0  0  0  0  0  0  0  0
  -12.0000   14.2647   69.0684 C   0  0  0  0  0  0  0  0  0  0  0  0
  -10.2803   15.5979   65.6764 S   0  0  0  0  0  0  0  0  0  0  0  0
   -9.1225   16.5551   65.6856 O   0  0  0  0  0  0  0  0  0  0  0  0
  -11.3735   16.1314   64.7975 O   0  0  0  0  0  0  0  0  0  0  0  0
   -9.6949   14.0746   65.1007 N   0  0  0  0  0  0  0  0  0  0  0  0
  -12.6968   17.1936   73.8859 H   0  0  0  0  0  0  0  0  0  0  0  0
  -11.4014   16.0269   74.2076 H   0  0  0  0  0  0  0  0  0  0  0  0
  -13.1011   15.4379   73.8338 H   0  0  0  0  0  0  0  0  0  0  0  0
  -11.0578   17.2832   70.1005 H   0  0  0  0  0  0  0  0  0  0  0  0
  -10.2272   17.4452   67.8538 H   0  0  0  0  0  0  0  0  0  0  0  0
  -11.6542   13.5000   67.0816 H   0  0  0  0  0  0  0  0  0  0  0  0
  -12.4999   13.3796   69.4255 H   0  0  0  0  0  0  0  0  0  0  0  0
   -9.6623   13.4389   65.9523 H   0  0  0  0  0  0  0  0  0  0  0  0
   -8.6883   14.2027   64.8378 H   0  0  0  0  0  0  0  0  0  0  0  0
  1  2  1  0  0  0  0
  2  3  1  0  0  0  0
  3  4  2  0  0  0  0
  3  5  1  0  0  0  0
  5  6  2  0  0  0  0
  6  7  1  0  0  0  0
  7  8  2  0  0  0  0
  8  9  1  0  0  0  0
  9 10  2  0  0  0  0
  8 11  1  0  0  0  0
 11 12  2  0  0  0  0
 11 13  2  0  0  0  0
 11 14  1  0  0  0  0
  5 10  1  0  0  0  0
  1 15  1  0  0  0  0
  1 16  1  0  0  0  0
  1 17  1  0  0  0  0
  6 18  1  0  0  0  0
  7 19  1  0  0  0  0
  9 20  1  0  0  0  0
 10 21  1  0  0  0  0
 14 22  1  0  0  0  0
 14 23  1  0  0  0  0
M  END
> <Gold.Version>
2022.1.0

> <Gold.Id.Protein>
6LU7|6LU7_protein|mol2

> <Gold.PLP.Fitness>
36.1130

> <Gold.PLP.PLP>
-30.5082

> <Gold.PLP.part.hbond>
-1.9937

> <Gold.PLP.part.metal>
0.0000

> <Gold.PLP.part.buried>
-6.6062

> <Gold.PLP.part.nonpolar>
-23.4475

> <Gold.PLP.part.repulsive>
0.3003

> <Gold.PLP.ligand.clash>
0.0000

> <Gold.PLP.ligand.torsion>
1.2459

> <Gold.PLP.Chemscore.Hbond>
1.9670

> <Gold.PLP.Chemscore.CHOScore>
0.0000

> <Gold.PLP.Chemscore.Metal>
0.0000

> <Gold.Chemscore.Hbonds>
donor molecule, donor type, donor heavy atom, donor atom, acceptor molecule, acceptor atom, score
      L1  H    14    23       P1  1103  0.99
      P1  H  1105  4261       L1    12  0.98

> <Gold.PLP.Chemscore.Internal.Correction>
2.1957

> <Gold.Protein.RotatedTorsions>
[ 3973 1471 1470 1467 ] final   46.37 input   60.00 | X-H torsion
[ 3372  414  413  411 ] final  124.72 input   60.00 | X-H torsion
[ 4268 1114 1113 1110 ] final  -57.06 input   59.99 | X-H torsion
[ 4409  924  923  921 ] final   90.98 input   59.99 | X-H torsion
[ 4183 1244 1243 1241 ] final   34.71 input   59.99 | X-H torsion
[ 3800  178  177  174 ] final  131.57 input   60.00 | X-H torsion
[ 3793  171  170  167 ] final -145.87 input   60.00 | X-H torsion
[ 3576  185  184  181 ] final  -20.24 input   60.00 | X-H torsion
[ 3523  346  345  342 ] final    9.84 input   60.01 | X-H torsion
[ 3515  339  338  335 ] final   49.56 input   60.00 | X-H torsion
[ 3663  154  153  150 ] final -160.68 input   60.00 | X-H torsion
[ 4280 1130 1129 1126 ] final   -6.98 input   60.00 | X-H torsion

> <Gold.Protein.ActiveResidues>
 VAL20   THR21   CYS22   GLY23   THR24   THR25   THR26   LEU27   ASN28   PRO39  
 ARG40   HIS41   VAL42   CYS44   THR45   SER46   ASP48   MET49   LEU50   PRO52  
 TYR54   TYR118  ASN119  ILE136  GLY138  SER139  PHE140  LEU141  ASN142  GLY143 
 SER144  CYS145  GLY146  SER147  TYR161  HIS163  HIS164  MET165  GLU166  LEU167 
 PRO168  THR169  GLY170  VAL171  HIS172  ALA173  PHE181  PHE185  VAL186  ASP187 
 ARG188  GLN189  THR190  ALA191  GLN192  ALA193 

> <Gold.Protein.RotatedAtoms>
  -14.3181   17.1886   76.3883 H   0  0  0  0  0  0  0  0  0  0  0  0  # atno 3372 bound_to 414 
   -3.6248   21.5810   74.1727 H   0  0  0  0  0  0  0  0  0  0  0  0  # atno 3515 bound_to 339 
   -3.5227   18.0907   72.9723 H   0  0  0  0  0  0  0  0  0  0  0  0  # atno 3523 bound_to 346 
   -8.7327   25.4413   63.7823 H   0  0  0  0  0  0  0  0  0  0  0  0  # atno 3576 bound_to 185 
   -6.7306   29.3088   65.1955 H   0  0  0  0  0  0  0  0  0  0  0  0  # atno 3663 bound_to 154 
   -1.7794   24.2823   72.5644 H   0  0  0  0  0  0  0  0  0  0  0  0  # atno 3793 bound_to 171 
   -7.3765   23.6851   72.5120 H   0  0  0  0  0  0  0  0  0  0  0  0  # atno 3800 bound_to 178 
  -15.3175    7.5281   77.0358 H   0  0  0  0  0  0  0  0  0  0  0  0  # atno 3973 bound_to 1471
  -21.0438   12.4449   63.9327 H   0  0  0  0  0  0  0  0  0  0  0  0  # atno 4183 bound_to 1244
  -12.4923   15.9387   61.8941 H   0  0  0  0  0  0  0  0  0  0  0  0  # atno 4268 bound_to 1114
  -16.1280   20.4054   58.9799 H   0  0  0  0  0  0  0  0  0  0  0  0  # atno 4280 bound_to 1130
  -10.4999   14.9188   56.7250 H   0  0  0  0  0  0  0  0  0  0  0  0  # atno 4409 bound_to 924 
  -15.0308    9.0714   77.4647 LP  0  0  0  0  0  0  0  0  0  0  0  0  # atno 4696 bound_to 1471
  -15.6862    8.0306   78.5389 LP  0  0  0  0  0  0  0  0  0  0  0  0  # atno 4697 bound_to 1471
  -14.2183   18.3362   75.2390 LP  0  0  0  0  0  0  0  0  0  0  0  0  # atno 4731 bound_to 414 
  -15.5623   17.4171   75.3647 LP  0  0  0  0  0  0  0  0  0  0  0  0  # atno 4732 bound_to 414 
  -13.3552   15.1316   60.7752 LP  0  0  0  0  0  0  0  0  0  0  0  0  # atno 4733 bound_to 1114
  -14.0727   16.2725   61.6972 LP  0  0  0  0  0  0  0  0  0  0  0  0  # atno 4734 bound_to 1114
  -12.0583   15.3839   56.6706 LP  0  0  0  0  0  0  0  0  0  0  0  0  # atno 4763 bound_to 924 
  -11.3121   15.1858   58.1095 LP  0  0  0  0  0  0  0  0  0  0  0  0  # atno 4764 bound_to 924 
  -20.2660   13.7817   64.4386 LP  0  0  0  0  0  0  0  0  0  0  0  0  # atno 4771 bound_to 1244
  -20.0526   13.2372   62.9139 LP  0  0  0  0  0  0  0  0  0  0  0  0  # atno 4772 bound_to 1244
   -6.0598   23.4690   71.5804 LP  0  0  0  0  0  0  0  0  0  0  0  0  # atno 4775 bound_to 178 
   -7.1759   22.2839   71.7092 LP  0  0  0  0  0  0  0  0  0  0  0  0  # atno 4776 bound_to 178 
   -2.8867   23.4370   71.7234 LP  0  0  0  0  0  0  0  0  0  0  0  0  # atno 4779 bound_to 171 
   -3.3017   24.8437   72.4415 LP  0  0  0  0  0  0  0  0  0  0  0  0  # atno 4780 bound_to 171 
   -7.2890   25.5415   63.0383 LP  0  0  0  0  0  0  0  0  0  0  0  0  # atno 4783 bound_to 185 
   -7.9242   26.8534   63.7746 LP  0  0  0  0  0  0  0  0  0  0  0  0  # atno 4784 bound_to 185 
   -2.7357   16.7326   72.5429 LP  0  0  0  0  0  0  0  0  0  0  0  0  # atno 4785 bound_to 346 
   -1.8998   18.0302   73.0760 LP  0  0  0  0  0  0  0  0  0  0  0  0  # atno 4786 bound_to 346 
   -3.1087   20.4774   75.2514 LP  0  0  0  0  0  0  0  0  0  0  0  0  # atno 4787 bound_to 339 
   -2.7315   22.0540   75.4480 LP  0  0  0  0  0  0  0  0  0  0  0  0  # atno 4788 bound_to 339 
   -8.2866   29.7505   65.0173 LP  0  0  0  0  0  0  0  0  0  0  0  0  # atno 4797 bound_to 154 
   -7.9153   28.2377   65.5074 LP  0  0  0  0  0  0  0  0  0  0  0  0  # atno 4798 bound_to 154 

$$$$
