unknown|prepared_Mpro-x1249|sdf|1|dock2
  -GOLD-   5 72214353D 1   1.00000     0.00000

 33 34  0  0  0  0  0  0  0  0  1 V2000
  -12.2918   11.6960   70.3634 O   0  0  0  0  0  0  0  0  0  0  0  0
  -12.9098   12.0112   71.4303 C   0  0  0  0  0  0  0  0  0  0  0  0
  -13.4435   10.9540   72.1882 N   0  0  0  0  0  0  0  0  0  0  0  0
  -13.3435    9.5527   71.8340 C   0  0  0  0  0  0  0  0  0  0  0  0
  -12.0028    8.9776   72.0600 C   0  0  0  0  0  0  0  0  0  0  0  0
  -10.9290    9.4969   71.3286 C   0  0  0  0  0  0  0  0  0  0  0  0
   -9.6491    9.0016   71.4948 C   0  0  0  0  0  0  0  0  0  0  0  0
   -9.3985    7.9649   72.4037 C   0  0  0  0  0  0  0  0  0  0  0  0
   -8.0498    7.4670   72.5662 C   0  0  0  0  0  0  0  0  0  0  0  0
   -6.9730    7.0642   72.6764 N   0  0  0  0  0  0  0  0  0  0  0  0
  -10.4502    7.4481   73.1278 C   0  0  0  0  0  0  0  0  0  0  0  0
  -11.7315    7.9624   72.9431 C   0  0  0  0  0  0  0  0  0  0  0  0
  -12.9920   13.3928   71.7366 N   0  0  0  0  0  0  0  0  0  0  0  0
  -12.6293   14.3508   70.7124 C   0  0  0  0  0  0  0  0  0  0  0  0
  -11.9562   15.5642   71.3165 C   0  0  0  0  0  0  0  0  0  0  0  0
  -12.7081   16.0723   72.3786 O   0  0  0  0  0  0  0  0  0  0  0  0
  -12.5996   15.1072   73.3972 C   0  0  0  0  0  0  0  0  0  0  0  0
  -13.4173   13.9142   72.9999 C   0  0  0  0  0  0  0  0  0  0  0  0
  -13.9461   11.2164   73.0742 H   0  0  0  0  0  0  0  0  0  0  0  0
  -14.0920    8.9216   72.3954 H   0  0  0  0  0  0  0  0  0  0  0  0
  -13.5915    9.4319   70.7741 H   0  0  0  0  0  0  0  0  0  0  0  0
  -11.1381   10.2933   70.6314 H   0  0  0  0  0  0  0  0  0  0  0  0
   -8.8086    9.3805   70.9488 H   0  0  0  0  0  0  0  0  0  0  0  0
  -10.2655    6.6321   73.8428 H   0  0  0  0  0  0  0  0  0  0  0  0
  -12.5430    7.5380   73.5172 H   0  0  0  0  0  0  0  0  0  0  0  0
  -11.8843   13.9103   69.9900 H   0  0  0  0  0  0  0  0  0  0  0  0
  -13.5075   14.5997   70.0840 H   0  0  0  0  0  0  0  0  0  0  0  0
  -10.9783   15.2448   71.7143 H   0  0  0  0  0  0  0  0  0  0  0  0
  -11.7991   16.3020   70.5332 H   0  0  0  0  0  0  0  0  0  0  0  0
  -13.0272   15.5599   74.3396 H   0  0  0  0  0  0  0  0  0  0  0  0
  -11.5422   14.8339   73.5793 H   0  0  0  0  0  0  0  0  0  0  0  0
  -13.4002   13.1719   73.8205 H   0  0  0  0  0  0  0  0  0  0  0  0
  -14.4817   14.2448   72.9026 H   0  0  0  0  0  0  0  0  0  0  0  0
  1  2  2  0  0  0  0
  2  3  1  0  0  0  0
  3  4  1  0  0  0  0
  4  5  1  0  0  0  0
  5  6  2  0  0  0  0
  6  7  1  0  0  0  0
  7  8  2  0  0  0  0
  8  9  1  0  0  0  0
  9 10  3  0  0  0  0
  8 11  1  0  0  0  0
 11 12  2  0  0  0  0
  2 13  1  0  0  0  0
 13 14  1  0  0  0  0
 14 15  1  0  0  0  0
 15 16  1  0  0  0  0
 16 17  1  0  0  0  0
 17 18  1  0  0  0  0
  5 12  1  0  0  0  0
 18 13  1  0  0  0  0
  3 19  1  0  0  0  0
  4 20  1  0  0  0  0
  4 21  1  0  0  0  0
  6 22  1  0  0  0  0
  7 23  1  0  0  0  0
 11 24  1  0  0  0  0
 12 25  1  0  0  0  0
 14 26  1  0  0  0  0
 14 27  1  0  0  0  0
 15 28  1  0  0  0  0
 15 29  1  0  0  0  0
 17 30  1  0  0  0  0
 17 31  1  0  0  0  0
 18 32  1  0  0  0  0
 18 33  1  0  0  0  0
M  END
> <Gold.Version>
2022.1.0

> <Gold.Id.Protein>
6LU7|6LU7_protein|mol2

> <Gold.PLP.Fitness>
48.4625

> <Gold.PLP.PLP>
-46.2048

> <Gold.PLP.part.hbond>
-0.9806

> <Gold.PLP.part.metal>
0.0000

> <Gold.PLP.part.buried>
-6.7123

> <Gold.PLP.part.nonpolar>
-39.6723

> <Gold.PLP.part.repulsive>
0.3111

> <Gold.PLP.ligand.clash>
0.0000

> <Gold.PLP.ligand.torsion>
0.1681

> <Gold.PLP.Chemscore.Hbond>
0.8645

> <Gold.PLP.Chemscore.CHOScore>
0.0000

> <Gold.PLP.Chemscore.Metal>
0.0000

> <Gold.Chemscore.Hbonds>
donor molecule, donor type, donor heavy atom, donor atom, acceptor molecule, acceptor atom, score
      L1  H     3    19       P1  1449  0.86

> <Gold.PLP.Chemscore.Internal.Correction>
0.0004

> <Gold.Protein.RotatedTorsions>
[ 3973 1471 1470 1467 ] final   -1.04 input   60.00 | X-H torsion
[ 3372  414  413  411 ] final  156.69 input   60.00 | X-H torsion
[ 4268 1114 1113 1110 ] final  -70.42 input   59.99 | X-H torsion
[ 4409  924  923  921 ] final  -83.53 input   59.99 | X-H torsion
[ 4183 1244 1243 1241 ] final   99.94 input   59.99 | X-H torsion
[ 3800  178  177  174 ] final  -91.21 input   60.00 | X-H torsion
[ 3793  171  170  167 ] final   47.55 input   60.00 | X-H torsion
[ 3576  185  184  181 ] final  -95.09 input   60.00 | X-H torsion
[ 3523  346  345  342 ] final   71.55 input   60.01 | X-H torsion
[ 3515  339  338  335 ] final  152.63 input   60.00 | X-H torsion
[ 3663  154  153  150 ] final -135.68 input   60.00 | X-H torsion
[ 4280 1130 1129 1126 ] final -179.90 input   60.00 | X-H torsion

> <Gold.Protein.ActiveResidues>
 VAL20   THR21   CYS22   GLY23   THR24   THR25   THR26   LEU27   ASN28   PRO39  
 ARG40   HIS41   VAL42   CYS44   THR45   SER46   ASP48   MET49   LEU50   PRO52  
 TYR54   TYR118  ASN119  ILE136  GLY138  SER139  PHE140  LEU141  ASN142  GLY143 
 SER144  CYS145  GLY146  SER147  TYR161  HIS163  HIS164  MET165  GLU166  LEU167 
 PRO168  THR169  GLY170  VAL171  HIS172  ALA173  PHE181  PHE185  VAL186  ASP187 
 ARG188  GLN189  THR190  ALA191  GLN192  ALA193 

> <Gold.Protein.RotatedAtoms>
  -14.7839   16.9791   76.3170 H   0  0  0  0  0  0  0  0  0  0  0  0  # atno 3372 bound_to 414 
   -2.8410   22.2046   75.2433 H   0  0  0  0  0  0  0  0  0  0  0  0  # atno 3515 bound_to 339 
   -2.6793   18.4973   73.1852 H   0  0  0  0  0  0  0  0  0  0  0  0  # atno 3523 bound_to 346 
   -7.8274   25.0866   63.1912 H   0  0  0  0  0  0  0  0  0  0  0  0  # atno 3576 bound_to 185 
   -6.7260   28.9227   65.3186 H   0  0  0  0  0  0  0  0  0  0  0  0  # atno 3663 bound_to 154 
   -3.4484   23.9103   71.8340 H   0  0  0  0  0  0  0  0  0  0  0  0  # atno 3793 bound_to 171 
   -6.9374   22.2921   71.5599 H   0  0  0  0  0  0  0  0  0  0  0  0  # atno 3800 bound_to 178 
  -15.0492    8.1873   76.7903 H   0  0  0  0  0  0  0  0  0  0  0  0  # atno 3973 bound_to 1471
  -20.5916   12.5734   63.0396 H   0  0  0  0  0  0  0  0  0  0  0  0  # atno 4183 bound_to 1244
  -12.4192   15.7833   61.7601 H   0  0  0  0  0  0  0  0  0  0  0  0  # atno 4268 bound_to 1114
  -15.8786   18.6093   58.5284 H   0  0  0  0  0  0  0  0  0  0  0  0  # atno 4280 bound_to 1130
  -12.1130   15.4183   57.5287 H   0  0  0  0  0  0  0  0  0  0  0  0  # atno 4409 bound_to 924 
  -15.2885    9.0078   78.1750 LP  0  0  0  0  0  0  0  0  0  0  0  0  # atno 4696 bound_to 1471
  -15.6987    7.4303   78.0760 LP  0  0  0  0  0  0  0  0  0  0  0  0  # atno 4697 bound_to 1471
  -13.9097   18.1601   75.6177 LP  0  0  0  0  0  0  0  0  0  0  0  0  # atno 4731 bound_to 414 
  -15.4018   17.8041   75.0578 LP  0  0  0  0  0  0  0  0  0  0  0  0  # atno 4732 bound_to 414 
  -13.5654   15.1938   60.7668 LP  0  0  0  0  0  0  0  0  0  0  0  0  # atno 4733 bound_to 1114
  -13.9361   16.3668   61.8406 LP  0  0  0  0  0  0  0  0  0  0  0  0  # atno 4734 bound_to 1114
  -10.5672   14.9551   57.7384 LP  0  0  0  0  0  0  0  0  0  0  0  0  # atno 4763 bound_to 924 
  -11.1786   15.1115   56.2323 LP  0  0  0  0  0  0  0  0  0  0  0  0  # atno 4764 bound_to 924 
  -20.8966   12.9974   64.5808 LP  0  0  0  0  0  0  0  0  0  0  0  0  # atno 4771 bound_to 1244
  -19.8774   13.8921   63.6712 LP  0  0  0  0  0  0  0  0  0  0  0  0  # atno 4772 bound_to 1244
   -7.5469   23.4612   72.5137 LP  0  0  0  0  0  0  0  0  0  0  0  0  # atno 4775 bound_to 178 
   -6.1309   23.6946   71.7346 LP  0  0  0  0  0  0  0  0  0  0  0  0  # atno 4776 bound_to 178 
   -2.6326   24.9928   72.7343 LP  0  0  0  0  0  0  0  0  0  0  0  0  # atno 4779 bound_to 171 
   -1.8748   23.6625   72.1661 LP  0  0  0  0  0  0  0  0  0  0  0  0  # atno 4780 bound_to 171 
   -7.3484   26.6278   63.3986 LP  0  0  0  0  0  0  0  0  0  0  0  0  # atno 4783 bound_to 185 
   -8.7766   26.1244   64.0097 LP  0  0  0  0  0  0  0  0  0  0  0  0  # atno 4784 bound_to 185 
   -3.5559   17.2318   72.6579 LP  0  0  0  0  0  0  0  0  0  0  0  0  # atno 4785 bound_to 346 
   -1.9290   17.1216   72.7465 LP  0  0  0  0  0  0  0  0  0  0  0  0  # atno 4786 bound_to 346 
   -3.6692   21.3080   74.1671 LP  0  0  0  0  0  0  0  0  0  0  0  0  # atno 4787 bound_to 339 
   -2.9603   20.5954   75.4541 LP  0  0  0  0  0  0  0  0  0  0  0  0  # atno 4788 bound_to 339 
   -7.9356   29.9511   64.9614 LP  0  0  0  0  0  0  0  0  0  0  0  0  # atno 4797 bound_to 154 
   -8.2710   28.4261   65.4394 LP  0  0  0  0  0  0  0  0  0  0  0  0  # atno 4798 bound_to 154 

$$$$
