unknown|prepared_Mpro-x1077|sdf|1|dock2
  -GOLD-   5 72214353D 1   1.00000     0.00000

 28 29  0  0  0  0  0  0  0  0  1 V2000
  -10.0708    9.2881   66.0393 N   0  0  0  0  0  0  0  0  0  0  0  0
  -10.4882   10.0114   66.8428 C   0  0  0  0  0  0  0  0  0  0  0  0
  -10.9940   10.9166   67.8588 C   0  0  0  0  0  0  0  0  0  0  0  0
  -11.4167   10.4127   69.0696 C   0  0  0  0  0  0  0  0  0  0  0  0
  -11.9050   11.2851   70.0507 C   0  0  0  0  0  0  0  0  0  0  0  0
  -11.9559   12.6351   69.7915 C   0  0  0  0  0  0  0  0  0  0  0  0
  -11.5283   13.1058   68.5779 C   0  0  0  0  0  0  0  0  0  0  0  0
  -11.0554   12.2407   67.6335 N   0  0  0  0  0  0  0  0  0  0  0  0
  -12.4410   13.5436   70.7658 N   0  0  0  0  0  0  0  0  0  0  0  0
  -13.2289   12.9534   71.8005 C   0  0  0  0  0  0  0  0  0  0  0  0
  -13.5029   13.8129   72.9853 C   0  0  0  0  0  0  0  0  0  0  0  0
  -12.4046   14.7749   73.3380 C   0  0  0  0  0  0  0  0  0  0  0  0
  -12.5281   15.9940   72.6936 O   0  0  0  0  0  0  0  0  0  0  0  0
  -12.8748   15.8995   71.3702 C   0  0  0  0  0  0  0  0  0  0  0  0
  -12.0830   14.9154   70.5810 C   0  0  0  0  0  0  0  0  0  0  0  0
  -11.3659    9.3381   69.2502 H   0  0  0  0  0  0  0  0  0  0  0  0
  -12.2205   10.8443   70.9692 H   0  0  0  0  0  0  0  0  0  0  0  0
  -11.5280   14.1383   68.2844 H   0  0  0  0  0  0  0  0  0  0  0  0
  -14.1994   12.6062   71.3929 H   0  0  0  0  0  0  0  0  0  0  0  0
  -12.7073   12.0370   72.1848 H   0  0  0  0  0  0  0  0  0  0  0  0
  -13.7248   13.1929   73.8858 H   0  0  0  0  0  0  0  0  0  0  0  0
  -14.4385   14.4270   72.8270 H   0  0  0  0  0  0  0  0  0  0  0  0
  -12.4911   14.9843   74.4260 H   0  0  0  0  0  0  0  0  0  0  0  0
  -11.3932   14.3196   73.2056 H   0  0  0  0  0  0  0  0  0  0  0  0
  -13.9443   15.6622   71.2910 H   0  0  0  0  0  0  0  0  0  0  0  0
  -12.6764   16.9138   70.9120 H   0  0  0  0  0  0  0  0  0  0  0  0
  -10.9889   15.0021   70.7269 H   0  0  0  0  0  0  0  0  0  0  0  0
  -12.2492   15.2046   69.4985 H   0  0  0  0  0  0  0  0  0  0  0  0
  1  2  3  0  0  0  0
  2  3  1  0  0  0  0
  3  4  2  0  0  0  0
  4  5  1  0  0  0  0
  5  6  2  0  0  0  0
  6  7  1  0  0  0  0
  7  8  2  0  0  0  0
  6  9  1  0  0  0  0
  9 10  1  0  0  0  0
 10 11  1  0  0  0  0
 11 12  1  0  0  0  0
 12 13  1  0  0  0  0
 13 14  1  0  0  0  0
 14 15  1  0  0  0  0
  3  8  1  0  0  0  0
 15  9  1  0  0  0  0
  4 16  1  0  0  0  0
  5 17  1  0  0  0  0
  7 18  1  0  0  0  0
 10 19  1  0  0  0  0
 10 20  1  0  0  0  0
 11 21  1  0  0  0  0
 11 22  1  0  0  0  0
 12 23  1  0  0  0  0
 12 24  1  0  0  0  0
 14 25  1  0  0  0  0
 14 26  1  0  0  0  0
 15 27  1  0  0  0  0
 15 28  1  0  0  0  0
M  END
> <Gold.Version>
2022.1.0

> <Gold.Id.Protein>
6LU7|6LU7_protein|mol2

> <Gold.PLP.Fitness>
38.8733

> <Gold.PLP.PLP>
-38.9160

> <Gold.PLP.part.hbond>
0.0000

> <Gold.PLP.part.metal>
0.0000

> <Gold.PLP.part.buried>
-5.5910

> <Gold.PLP.part.nonpolar>
-33.7489

> <Gold.PLP.part.repulsive>
0.2213

> <Gold.PLP.ligand.clash>
0.0000

> <Gold.PLP.ligand.torsion>
0.1510

> <Gold.PLP.Chemscore.Hbond>
0.0000

> <Gold.PLP.Chemscore.CHOScore>
0.0000

> <Gold.PLP.Chemscore.Metal>
0.0000

> <Gold.PLP.Chemscore.Internal.Correction>
0.2593

> <Gold.Protein.RotatedTorsions>
[ 3973 1471 1470 1467 ] final   11.52 input   60.00 | X-H torsion
[ 3372  414  413  411 ] final   58.92 input   60.00 | X-H torsion
[ 4268 1114 1113 1110 ] final   60.69 input   59.99 | X-H torsion
[ 4409  924  923  921 ] final   82.48 input   59.99 | X-H torsion
[ 4183 1244 1243 1241 ] final  -17.92 input   59.99 | X-H torsion
[ 3800  178  177  174 ] final  123.55 input   60.00 | X-H torsion
[ 3793  171  170  167 ] final    4.30 input   60.00 | X-H torsion
[ 3576  185  184  181 ] final  123.93 input   60.00 | X-H torsion
[ 3523  346  345  342 ] final  142.93 input   60.01 | X-H torsion
[ 3515  339  338  335 ] final   52.99 input   60.00 | X-H torsion
[ 3663  154  153  150 ] final  -68.67 input   60.00 | X-H torsion
[ 4280 1130 1129 1126 ] final   66.66 input   60.00 | X-H torsion

> <Gold.Protein.ActiveResidues>
 VAL20   THR21   CYS22   GLY23   THR24   THR25   THR26   LEU27   ASN28   PRO39  
 ARG40   HIS41   VAL42   CYS44   THR45   SER46   ASP48   MET49   LEU50   PRO52  
 TYR54   TYR118  ASN119  ILE136  GLY138  SER139  PHE140  LEU141  ASN142  GLY143 
 SER144  CYS145  GLY146  SER147  TYR161  HIS163  HIS164  MET165  GLU166  LEU167 
 PRO168  THR169  GLY170  VAL171  HIS172  ALA173  PHE181  PHE185  VAL186  ASP187 
 ARG188  GLN189  THR190  ALA191  GLN192  ALA193 

> <Gold.Protein.RotatedAtoms>
  -13.8402   17.9398   75.8967 H   0  0  0  0  0  0  0  0  0  0  0  0  # atno 3372 bound_to 414 
   -3.6111   21.6346   74.1808 H   0  0  0  0  0  0  0  0  0  0  0  0  # atno 3515 bound_to 339 
   -1.8241   17.8391   73.0157 H   0  0  0  0  0  0  0  0  0  0  0  0  # atno 3523 bound_to 346 
   -7.5885   26.7915   63.5791 H   0  0  0  0  0  0  0  0  0  0  0  0  # atno 3576 bound_to 185 
   -7.4613   28.2259   65.5238 H   0  0  0  0  0  0  0  0  0  0  0  0  # atno 3663 bound_to 154 
   -3.5301   24.5085   72.1682 H   0  0  0  0  0  0  0  0  0  0  0  0  # atno 3793 bound_to 171 
   -7.2822   23.7747   72.4960 H   0  0  0  0  0  0  0  0  0  0  0  0  # atno 3800 bound_to 178 
  -15.1074    7.9911   76.7992 H   0  0  0  0  0  0  0  0  0  0  0  0  # atno 3973 bound_to 1471
  -20.9102   12.9717   64.5601 H   0  0  0  0  0  0  0  0  0  0  0  0  # atno 4183 bound_to 1244
  -14.0466   16.2885   61.7190 H   0  0  0  0  0  0  0  0  0  0  0  0  # atno 4268 bound_to 1114
  -15.6065   19.6694   59.6473 H   0  0  0  0  0  0  0  0  0  0  0  0  # atno 4280 bound_to 1130
  -10.5718   14.9383   56.6079 H   0  0  0  0  0  0  0  0  0  0  0  0  # atno 4409 bound_to 924 
  -15.2083    9.0838   78.0007 LP  0  0  0  0  0  0  0  0  0  0  0  0  # atno 4696 bound_to 1471
  -15.7203    7.5520   78.2412 LP  0  0  0  0  0  0  0  0  0  0  0  0  # atno 4697 bound_to 1471
  -15.1587   18.0516   74.9495 LP  0  0  0  0  0  0  0  0  0  0  0  0  # atno 4731 bound_to 414 
  -15.1031   16.9451   76.1492 LP  0  0  0  0  0  0  0  0  0  0  0  0  # atno 4732 bound_to 414 
  -12.4715   15.9122   61.8776 LP  0  0  0  0  0  0  0  0  0  0  0  0  # atno 4733 bound_to 1114
  -13.3910   15.1397   60.7712 LP  0  0  0  0  0  0  0  0  0  0  0  0  # atno 4734 bound_to 1114
  -12.1196   15.4046   56.7945 LP  0  0  0  0  0  0  0  0  0  0  0  0  # atno 4763 bound_to 924 
  -11.1784   15.1455   58.1035 LP  0  0  0  0  0  0  0  0  0  0  0  0  # atno 4764 bound_to 924 
  -19.8844   13.9008   63.7044 LP  0  0  0  0  0  0  0  0  0  0  0  0  # atno 4771 bound_to 1244
  -20.5687   12.5876   63.0162 LP  0  0  0  0  0  0  0  0  0  0  0  0  # atno 4772 bound_to 1244
   -6.0513   23.3527   71.5188 LP  0  0  0  0  0  0  0  0  0  0  0  0  # atno 4775 bound_to 178 
   -7.2792   22.3100   71.7869 LP  0  0  0  0  0  0  0  0  0  0  0  0  # atno 4776 bound_to 178 
   -2.0134   24.6772   72.7330 LP  0  0  0  0  0  0  0  0  0  0  0  0  # atno 4779 bound_to 171 
   -2.4118   23.3757   71.8308 LP  0  0  0  0  0  0  0  0  0  0  0  0  # atno 4780 bound_to 171 
   -8.8231   25.7927   63.9342 LP  0  0  0  0  0  0  0  0  0  0  0  0  # atno 4783 bound_to 185 
   -7.5426   25.2424   63.0833 LP  0  0  0  0  0  0  0  0  0  0  0  0  # atno 4784 bound_to 185 
   -3.3979   18.2521   73.0377 LP  0  0  0  0  0  0  0  0  0  0  0  0  # atno 4785 bound_to 346 
   -2.9482   16.7641   72.5374 LP  0  0  0  0  0  0  0  0  0  0  0  0  # atno 4786 bound_to 346 
   -3.1396   20.4627   75.2067 LP  0  0  0  0  0  0  0  0  0  0  0  0  # atno 4787 bound_to 339 
   -2.7144   22.0147   75.4845 LP  0  0  0  0  0  0  0  0  0  0  0  0  # atno 4788 bound_to 339 
   -6.9321   29.6949   65.0657 LP  0  0  0  0  0  0  0  0  0  0  0  0  # atno 4797 bound_to 154 
   -8.5340   29.3840   65.1284 LP  0  0  0  0  0  0  0  0  0  0  0  0  # atno 4798 bound_to 154 

$$$$
