unknown|prepared_Mpro-x0104|sdf|1|dock3
  -GOLD-   5 72214353D 1   1.00000     0.00000

 29 30  0  0  0  0  0  0  0  0  1 V2000
  -12.2555   12.1566   63.7216 C   0  0  0  0  0  0  0  0  0  0  0  0
  -11.8751   12.6357   65.0503 C   0  0  0  0  0  0  0  0  0  0  0  0
  -12.2928   12.0030   66.0589 O   0  0  0  0  0  0  0  0  0  0  0  0
  -11.0631   13.7701   65.3010 N   0  0  0  0  0  0  0  0  0  0  0  0
  -10.7098   14.2120   66.6087 C   0  0  0  0  0  0  0  0  0  0  0  0
  -11.8728   14.4071   67.5299 C   0  0  0  0  0  0  0  0  0  0  0  0
  -11.5815   15.2573   68.6888 C   0  0  0  0  0  0  0  0  0  0  0  0
  -10.8643   16.4281   68.7667 C   0  0  0  0  0  0  0  0  0  0  0  0
  -10.8407   16.8865   70.0320 N   0  0  0  0  0  0  0  0  0  0  0  0
  -11.5440   16.0097   70.7730 C   0  0  0  0  0  0  0  0  0  0  0  0
  -11.8137   16.0285   72.1251 C   0  0  0  0  0  0  0  0  0  0  0  0
  -12.5705   15.0053   72.6821 C   0  0  0  0  0  0  0  0  0  0  0  0
  -13.0608   13.9609   71.8947 C   0  0  0  0  0  0  0  0  0  0  0  0
  -13.7963   12.9547   72.4008 F   0  0  0  0  0  0  0  0  0  0  0  0
  -12.7678   13.9830   70.5537 C   0  0  0  0  0  0  0  0  0  0  0  0
  -12.0163   14.9887   69.9698 C   0  0  0  0  0  0  0  0  0  0  0  0
  -12.3233   12.9656   62.9557 H   0  0  0  0  0  0  0  0  0  0  0  0
  -13.2820   11.7281   63.7935 H   0  0  0  0  0  0  0  0  0  0  0  0
  -11.5605   11.4002   63.3058 H   0  0  0  0  0  0  0  0  0  0  0  0
  -10.7155   14.2961   64.4731 H   0  0  0  0  0  0  0  0  0  0  0  0
   -9.9809   13.4942   67.0352 H   0  0  0  0  0  0  0  0  0  0  0  0
  -10.1609   15.1939   66.5634 H   0  0  0  0  0  0  0  0  0  0  0  0
  -12.3156   13.4392   67.8335 H   0  0  0  0  0  0  0  0  0  0  0  0
  -12.6825   14.9206   66.9329 H   0  0  0  0  0  0  0  0  0  0  0  0
  -10.3766   16.9357   67.9510 H   0  0  0  0  0  0  0  0  0  0  0  0
  -10.3605   17.7578   70.3474 H   0  0  0  0  0  0  0  0  0  0  0  0
  -11.4491   16.8260   72.7736 H   0  0  0  0  0  0  0  0  0  0  0  0
  -12.7783   15.0221   73.7313 H   0  0  0  0  0  0  0  0  0  0  0  0
  -13.1560   13.1615   69.9463 H   0  0  0  0  0  0  0  0  0  0  0  0
  1  2  1  0  0  0  0
  2  3  2  0  0  0  0
  2  4  1  0  0  0  0
  4  5  1  0  0  0  0
  5  6  1  0  0  0  0
  6  7  1  0  0  0  0
  7  8  2  0  0  0  0
  8  9  1  0  0  0  0
  9 10  1  0  0  0  0
 10 11  2  0  0  0  0
 11 12  1  0  0  0  0
 12 13  2  0  0  0  0
 13 14  1  0  0  0  0
 13 15  1  0  0  0  0
 15 16  2  0  0  0  0
 16  7  1  0  0  0  0
 10 16  1  0  0  0  0
  1 17  1  0  0  0  0
  1 18  1  0  0  0  0
  1 19  1  0  0  0  0
  4 20  1  0  0  0  0
  5 21  1  0  0  0  0
  5 22  1  0  0  0  0
  6 23  1  0  0  0  0
  6 24  1  0  0  0  0
  8 25  1  0  0  0  0
  9 26  1  0  0  0  0
 11 27  1  0  0  0  0
 12 28  1  0  0  0  0
 15 29  1  0  0  0  0
M  END
> <Gold.Version>
2022.1.0

> <Gold.Id.Protein>
6LU7|6LU7_protein|mol2

> <Gold.PLP.Fitness>
46.0176

> <Gold.PLP.PLP>
-46.6898

> <Gold.PLP.part.hbond>
-1.0000

> <Gold.PLP.part.metal>
0.0000

> <Gold.PLP.part.buried>
-5.3152

> <Gold.PLP.part.nonpolar>
-41.0024

> <Gold.PLP.part.repulsive>
0.1189

> <Gold.PLP.ligand.clash>
0.0000

> <Gold.PLP.ligand.torsion>
0.3624

> <Gold.PLP.Chemscore.Hbond>
0.0156

> <Gold.PLP.Chemscore.CHOScore>
0.0000

> <Gold.PLP.Chemscore.Metal>
0.0000

> <Gold.Chemscore.Hbonds>
donor molecule, donor type, donor heavy atom, donor atom, acceptor molecule, acceptor atom, score
      P1  H  1281  4132       L1     3  0.02

> <Gold.PLP.Chemscore.Internal.Correction>
0.0059

> <Gold.Protein.RotatedTorsions>
[ 3973 1471 1470 1467 ] final  -70.72 input   60.00 | X-H torsion
[ 3372  414  413  411 ] final -109.30 input   60.00 | X-H torsion
[ 4268 1114 1113 1110 ] final  -45.44 input   59.99 | X-H torsion
[ 4409  924  923  921 ] final    8.97 input   59.99 | X-H torsion
[ 4183 1244 1243 1241 ] final  -26.44 input   59.99 | X-H torsion
[ 3800  178  177  174 ] final -141.67 input   60.00 | X-H torsion
[ 3793  171  170  167 ] final   -1.07 input   60.00 | X-H torsion
[ 3576  185  184  181 ] final  -69.32 input   60.00 | X-H torsion
[ 3523  346  345  342 ] final -101.20 input   60.01 | X-H torsion
[ 3515  339  338  335 ] final  101.92 input   60.00 | X-H torsion
[ 3663  154  153  150 ] final  179.31 input   60.00 | X-H torsion
[ 4280 1130 1129 1126 ] final -153.45 input   60.00 | X-H torsion

> <Gold.Protein.ActiveResidues>
 VAL20   THR21   CYS22   GLY23   THR24   THR25   THR26   LEU27   ASN28   PRO39  
 ARG40   HIS41   VAL42   CYS44   THR45   SER46   ASP48   MET49   LEU50   PRO52  
 TYR54   TYR118  ASN119  ILE136  GLY138  SER139  PHE140  LEU141  ASN142  GLY143 
 SER144  CYS145  GLY146  SER147  TYR161  HIS163  HIS164  MET165  GLU166  LEU167 
 PRO168  THR169  GLY170  VAL171  HIS172  ALA173  PHE181  PHE185  VAL186  ASP187 
 ARG188  GLN189  THR190  ALA191  GLN192  ALA193 

> <Gold.Protein.RotatedAtoms>
  -15.5467   17.4904   75.3010 H   0  0  0  0  0  0  0  0  0  0  0  0  # atno 3372 bound_to 414 
   -3.2717   22.2151   74.5669 H   0  0  0  0  0  0  0  0  0  0  0  0  # atno 3515 bound_to 339 
   -2.8810   16.7545   72.5418 H   0  0  0  0  0  0  0  0  0  0  0  0  # atno 3523 bound_to 346 
   -8.1989   25.0464   63.3776 H   0  0  0  0  0  0  0  0  0  0  0  0  # atno 3576 bound_to 185 
   -6.8584   29.5929   65.1022 H   0  0  0  0  0  0  0  0  0  0  0  0  # atno 3663 bound_to 154 
   -3.5049   24.5769   72.2169 H   0  0  0  0  0  0  0  0  0  0  0  0  # atno 3793 bound_to 171 
   -7.5400   22.4999   72.0404 H   0  0  0  0  0  0  0  0  0  0  0  0  # atno 3800 bound_to 178 
  -15.0206    9.0489   77.4233 H   0  0  0  0  0  0  0  0  0  0  0  0  # atno 3973 bound_to 1471
  -20.8471   13.0853   64.6098 H   0  0  0  0  0  0  0  0  0  0  0  0  # atno 4183 bound_to 1244
  -12.5918   16.0672   61.9916 H   0  0  0  0  0  0  0  0  0  0  0  0  # atno 4268 bound_to 1114
  -16.0872   18.7910   58.2014 H   0  0  0  0  0  0  0  0  0  0  0  0  # atno 4280 bound_to 1130
  -11.6019   15.2421   56.2889 H   0  0  0  0  0  0  0  0  0  0  0  0  # atno 4409 bound_to 924 
  -15.6773    8.0762   78.5505 LP  0  0  0  0  0  0  0  0  0  0  0  0  # atno 4696 bound_to 1471
  -15.3387    7.4942   77.0628 LP  0  0  0  0  0  0  0  0  0  0  0  0  # atno 4697 bound_to 1471
  -14.3975   17.1309   76.3955 LP  0  0  0  0  0  0  0  0  0  0  0  0  # atno 4731 bound_to 414 
  -14.1458   18.3184   75.3031 LP  0  0  0  0  0  0  0  0  0  0  0  0  # atno 4732 bound_to 414 
  -13.1698   15.1061   60.8126 LP  0  0  0  0  0  0  0  0  0  0  0  0  # atno 4733 bound_to 1114
  -14.1579   16.1687   61.5617 LP  0  0  0  0  0  0  0  0  0  0  0  0  # atno 4734 bound_to 1114
  -11.8626   15.3473   57.8917 LP  0  0  0  0  0  0  0  0  0  0  0  0  # atno 4763 bound_to 924 
  -10.3979   14.8968   57.3276 LP  0  0  0  0  0  0  0  0  0  0  0  0  # atno 4764 bound_to 924 
  -19.8614   13.8599   63.5724 LP  0  0  0  0  0  0  0  0  0  0  0  0  # atno 4771 bound_to 1244
  -20.6554   12.5141   63.0982 LP  0  0  0  0  0  0  0  0  0  0  0  0  # atno 4772 bound_to 1244
   -6.9426   23.9746   72.3819 LP  0  0  0  0  0  0  0  0  0  0  0  0  # atno 4775 bound_to 178 
   -6.1283   22.9720   71.3827 LP  0  0  0  0  0  0  0  0  0  0  0  0  # atno 4776 bound_to 178 
   -1.9554   24.6138   72.7126 LP  0  0  0  0  0  0  0  0  0  0  0  0  # atno 4779 bound_to 171 
   -2.4951   23.3702   71.8022 LP  0  0  0  0  0  0  0  0  0  0  0  0  # atno 4780 bound_to 171 
   -7.1734   26.2979   63.2052 LP  0  0  0  0  0  0  0  0  0  0  0  0  # atno 4783 bound_to 185 
   -8.5775   26.4947   64.0153 LP  0  0  0  0  0  0  0  0  0  0  0  0  # atno 4784 bound_to 185 
   -1.8386   17.9028   73.0349 LP  0  0  0  0  0  0  0  0  0  0  0  0  # atno 4785 bound_to 346 
   -3.4432   18.2057   73.0175 LP  0  0  0  0  0  0  0  0  0  0  0  0  # atno 4786 bound_to 346 
   -3.5359   20.6096   74.5500 LP  0  0  0  0  0  0  0  0  0  0  0  0  # atno 4787 bound_to 339 
   -2.6599   21.2832   75.7523 LP  0  0  0  0  0  0  0  0  0  0  0  0  # atno 4788 bound_to 339 
   -8.4830   29.4995   65.0928 LP  0  0  0  0  0  0  0  0  0  0  0  0  # atno 4797 bound_to 154 
   -7.5903   28.2026   65.5260 LP  0  0  0  0  0  0  0  0  0  0  0  0  # atno 4798 bound_to 154 

$$$$
