unknown|prepared_Mpro-x0397|sdf|1|dock5
  -GOLD-   5 72214353D 1   1.00000     0.00000

 30 31  0  0  0  0  0  0  0  0  1 V2000
   -9.6007   15.6002   69.4988 C   0  0  0  0  0  0  0  0  0  0  0  0
  -11.0486   15.7271   69.5019 N   0  0  0  0  0  0  0  0  0  0  0  0
  -11.7087   16.3243   68.3380 C   0  0  0  0  0  0  0  0  0  0  0  0
  -10.6985   16.9560   67.4389 C   0  0  0  0  0  0  0  0  0  0  0  0
  -10.1510   18.2040   67.5396 C   0  0  0  0  0  0  0  0  0  0  0  0
   -9.2688   18.3372   66.4827 C   0  0  0  0  0  0  0  0  0  0  0  0
   -8.4155   19.4942   66.1281 C   0  0  0  0  0  0  0  0  0  0  0  0
   -9.3208   17.2013   65.8127 O   0  0  0  0  0  0  0  0  0  0  0  0
  -10.1556   16.3823   66.3627 N   0  0  0  0  0  0  0  0  0  0  0  0
  -11.8024   15.2785   70.6153 C   0  0  0  0  0  0  0  0  0  0  0  0
  -11.1953   15.0040   71.6817 O   0  0  0  0  0  0  0  0  0  0  0  0
  -13.2052   15.1536   70.4948 N   0  0  0  0  0  0  0  0  0  0  0  0
  -14.0097   14.7072   71.5829 C   0  0  0  0  0  0  0  0  0  0  0  0
  -13.4723   13.5774   72.4269 C   0  0  0  0  0  0  0  0  0  0  0  0
  -13.6311   14.9387   72.9952 C   0  0  0  0  0  0  0  0  0  0  0  0
   -9.2089   15.9820   70.4832 H   0  0  0  0  0  0  0  0  0  0  0  0
   -9.1410   16.1527   68.6604 H   0  0  0  0  0  0  0  0  0  0  0  0
   -9.3408   14.5222   69.4234 H   0  0  0  0  0  0  0  0  0  0  0  0
  -12.2131   15.5200   67.7638 H   0  0  0  0  0  0  0  0  0  0  0  0
  -12.4750   17.0604   68.6633 H   0  0  0  0  0  0  0  0  0  0  0  0
  -10.3508   18.9613   68.2902 H   0  0  0  0  0  0  0  0  0  0  0  0
   -8.5189   19.6888   65.0366 H   0  0  0  0  0  0  0  0  0  0  0  0
   -7.3553   19.2409   66.2968 H   0  0  0  0  0  0  0  0  0  0  0  0
   -8.7016   20.3896   66.6769 H   0  0  0  0  0  0  0  0  0  0  0  0
  -13.6950   15.3912   69.5847 H   0  0  0  0  0  0  0  0  0  0  0  0
  -15.1075   14.6667   71.3807 H   0  0  0  0  0  0  0  0  0  0  0  0
  -14.1876   12.7802   72.7106 H   0  0  0  0  0  0  0  0  0  0  0  0
  -12.4908   13.1865   72.1238 H   0  0  0  0  0  0  0  0  0  0  0  0
  -12.7342   15.5438   73.2628 H   0  0  0  0  0  0  0  0  0  0  0  0
  -14.4436   15.0442   73.7440 H   0  0  0  0  0  0  0  0  0  0  0  0
  1  2  1  0  0  0  0
  2  3  1  0  0  0  0
  3  4  1  0  0  0  0
  4  5  1  0  0  0  0
  5  6  2  0  0  0  0
  6  7  1  0  0  0  0
  6  8  1  0  0  0  0
  8  9  1  0  0  0  0
  2 10  1  0  0  0  0
 10 11  2  0  0  0  0
 10 12  1  0  0  0  0
 12 13  1  0  0  0  0
 13 14  1  0  0  0  0
 14 15  1  0  0  0  0
  4  9  2  0  0  0  0
 15 13  1  0  0  0  0
  1 16  1  0  0  0  0
  1 17  1  0  0  0  0
  1 18  1  0  0  0  0
  3 19  1  0  0  0  0
  3 20  1  0  0  0  0
  5 21  1  0  0  0  0
  7 22  1  0  0  0  0
  7 23  1  0  0  0  0
  7 24  1  0  0  0  0
 12 25  1  0  0  0  0
 13 26  1  0  0  0  0
 14 27  1  0  0  0  0
 14 28  1  0  0  0  0
 15 29  1  0  0  0  0
 15 30  1  0  0  0  0
M  END
> <Gold.Version>
2022.1.0

> <Gold.Id.Protein>
6LU7|6LU7_protein|mol2

> <Gold.PLP.Fitness>
38.2087

> <Gold.PLP.PLP>
-35.6593

> <Gold.PLP.part.hbond>
-2.0000

> <Gold.PLP.part.metal>
0.0000

> <Gold.PLP.part.buried>
-6.2414

> <Gold.PLP.part.nonpolar>
-28.9662

> <Gold.PLP.part.repulsive>
0.6131

> <Gold.PLP.ligand.clash>
1.8238

> <Gold.PLP.ligand.torsion>
0.8544

> <Gold.PLP.Chemscore.Hbond>
2.0000

> <Gold.PLP.Chemscore.CHOScore>
0.0000

> <Gold.PLP.Chemscore.Metal>
0.0000

> <Gold.Chemscore.Hbonds>
donor molecule, donor type, donor heavy atom, donor atom, acceptor molecule, acceptor atom, score
      L1  H    12    25       P1  1266  1.00
      P1  H  1105  4261       L1     8  1.00

> <Gold.PLP.Chemscore.Internal.Correction>
0.0819

> <Gold.Protein.RotatedTorsions>
[ 3973 1471 1470 1467 ] final  -26.45 input   60.00 | X-H torsion
[ 3372  414  413  411 ] final   83.56 input   60.00 | X-H torsion
[ 4268 1114 1113 1110 ] final  135.87 input   59.99 | X-H torsion
[ 4409  924  923  921 ] final -112.78 input   59.99 | X-H torsion
[ 4183 1244 1243 1241 ] final -127.90 input   59.99 | X-H torsion
[ 3800  178  177  174 ] final  121.29 input   60.00 | X-H torsion
[ 3793  171  170  167 ] final  -93.71 input   60.00 | X-H torsion
[ 3576  185  184  181 ] final  144.34 input   60.00 | X-H torsion
[ 3523  346  345  342 ] final -138.27 input   60.01 | X-H torsion
[ 3515  339  338  335 ] final   -3.62 input   60.00 | X-H torsion
[ 3663  154  153  150 ] final  -62.85 input   60.00 | X-H torsion
[ 4280 1130 1129 1126 ] final -128.41 input   60.00 | X-H torsion

> <Gold.Protein.ActiveResidues>
 VAL20   THR21   CYS22   GLY23   THR24   THR25   THR26   LEU27   ASN28   PRO39  
 ARG40   HIS41   VAL42   CYS44   THR45   SER46   ASP48   MET49   LEU50   PRO52  
 TYR54   TYR118  ASN119  ILE136  GLY138  SER139  PHE140  LEU141  ASN142  GLY143 
 SER144  CYS145  GLY146  SER147  TYR161  HIS163  HIS164  MET165  GLU166  LEU167 
 PRO168  THR169  GLY170  VAL171  HIS172  ALA173  PHE181  PHE185  VAL186  ASP187 
 ARG188  GLN189  THR190  ALA191  GLN192  ALA193 

> <Gold.Protein.RotatedAtoms>
  -13.9052   17.6487   76.1626 H   0  0  0  0  0  0  0  0  0  0  0  0  # atno 3372 bound_to 414 
   -3.6106   20.7734   74.3966 H   0  0  0  0  0  0  0  0  0  0  0  0  # atno 3515 bound_to 339 
   -2.2942   16.8245   72.6133 H   0  0  0  0  0  0  0  0  0  0  0  0  # atno 3523 bound_to 346 
   -7.3572   26.6283   63.4062 H   0  0  0  0  0  0  0  0  0  0  0  0  # atno 3576 bound_to 185 
   -7.5554   28.2123   65.5260 H   0  0  0  0  0  0  0  0  0  0  0  0  # atno 3663 bound_to 154 
   -2.3052   24.8829   72.7651 H   0  0  0  0  0  0  0  0  0  0  0  0  # atno 3793 bound_to 171 
   -7.2542   23.7978   72.4895 H   0  0  0  0  0  0  0  0  0  0  0  0  # atno 3800 bound_to 178 
  -14.9767    8.5773   76.9005 H   0  0  0  0  0  0  0  0  0  0  0  0  # atno 3973 bound_to 1471
  -19.9331   13.9236   63.8596 H   0  0  0  0  0  0  0  0  0  0  0  0  # atno 4183 bound_to 1244
  -14.0039   15.4837   60.9097 H   0  0  0  0  0  0  0  0  0  0  0  0  # atno 4268 bound_to 1114
  -16.2640   19.1007   58.0073 H   0  0  0  0  0  0  0  0  0  0  0  0  # atno 4280 bound_to 1130
  -11.8365   15.3421   57.9045 H   0  0  0  0  0  0  0  0  0  0  0  0  # atno 4409 bound_to 924 
  -15.4549    8.7429   78.4471 LP  0  0  0  0  0  0  0  0  0  0  0  0  # atno 4696 bound_to 1471
  -15.6053    7.3024   77.6928 LP  0  0  0  0  0  0  0  0  0  0  0  0  # atno 4697 bound_to 1471
  -14.8111   18.2542   74.9540 LP  0  0  0  0  0  0  0  0  0  0  0  0  # atno 4731 bound_to 414 
  -15.3853   17.0357   75.8771 LP  0  0  0  0  0  0  0  0  0  0  0  0  # atno 4732 bound_to 414 
  -13.4610   16.4567   62.0956 LP  0  0  0  0  0  0  0  0  0  0  0  0  # atno 4733 bound_to 1114
  -12.4446   15.4057   61.3682 LP  0  0  0  0  0  0  0  0  0  0  0  0  # atno 4734 bound_to 1114
  -10.3937   14.8950   57.2991 LP  0  0  0  0  0  0  0  0  0  0  0  0  # atno 4763 bound_to 924 
  -11.6305   15.2484   56.2931 LP  0  0  0  0  0  0  0  0  0  0  0  0  # atno 4764 bound_to 924 
  -20.4638   12.6898   62.9410 LP  0  0  0  0  0  0  0  0  0  0  0  0  # atno 4771 bound_to 1244
  -20.9734   12.8400   64.4851 LP  0  0  0  0  0  0  0  0  0  0  0  0  # atno 4772 bound_to 1244
   -6.0519   23.3191   71.5028 LP  0  0  0  0  0  0  0  0  0  0  0  0  # atno 4775 bound_to 178 
   -7.3069   22.3204   71.8094 LP  0  0  0  0  0  0  0  0  0  0  0  0  # atno 4776 bound_to 178 
   -2.1001   23.4709   71.9827 LP  0  0  0  0  0  0  0  0  0  0  0  0  # atno 4779 bound_to 171 
   -3.5588   24.2049   71.9799 LP  0  0  0  0  0  0  0  0  0  0  0  0  # atno 4780 bound_to 171 
   -8.7793   26.1155   64.0084 LP  0  0  0  0  0  0  0  0  0  0  0  0  # atno 4783 bound_to 185 
   -7.8192   25.0840   63.1833 LP  0  0  0  0  0  0  0  0  0  0  0  0  # atno 4784 bound_to 185 
   -2.2124   18.3523   73.1673 LP  0  0  0  0  0  0  0  0  0  0  0  0  # atno 4785 bound_to 346 
   -3.6604   17.6857   72.8131 LP  0  0  0  0  0  0  0  0  0  0  0  0  # atno 4786 bound_to 346 
   -2.7139   21.0537   75.7252 LP  0  0  0  0  0  0  0  0  0  0  0  0  # atno 4787 bound_to 339 
   -3.1406   22.2910   74.7487 LP  0  0  0  0  0  0  0  0  0  0  0  0  # atno 4788 bound_to 339 
   -6.8728   29.6236   65.0897 LP  0  0  0  0  0  0  0  0  0  0  0  0  # atno 4797 bound_to 154 
   -8.4984   29.4689   65.1022 LP  0  0  0  0  0  0  0  0  0  0  0  0  # atno 4798 bound_to 154 

$$$$
