unknown|prepared_Mpro-x0395|sdf|1|dock2
  -GOLD-   5 72214353D 1   1.00000     0.00000

 26 27  0  0  0  0  0  0  0  0  1 V2000
  -10.7739   11.3668   66.0800 C   0  0  0  0  0  0  0  0  0  0  0  0
  -10.8659   12.6149   66.9066 C   0  0  0  0  0  0  0  0  0  0  0  0
  -10.0635   13.6743   66.9120 N   0  0  0  0  0  0  0  0  0  0  0  0
  -10.3020   14.6425   67.6853 N   0  0  0  0  0  0  0  0  0  0  0  0
  -11.3557   14.6022   68.4942 C   0  0  0  0  0  0  0  0  0  0  0  0
  -11.8155   15.6431   69.4863 C   0  0  0  0  0  0  0  0  0  0  0  0
  -11.7732   15.0521   70.7926 N   0  0  0  0  0  0  0  0  0  0  0  0
  -12.5418   13.8817   70.9400 C   0  0  0  0  0  0  0  0  0  0  0  0
  -13.7581   13.9967   71.8054 C   0  0  0  0  0  0  0  0  0  0  0  0
  -13.5024   14.7458   73.0591 C   0  0  0  0  0  0  0  0  0  0  0  0
  -12.5258   15.6407   73.0411 C   0  0  0  0  0  0  0  0  0  0  0  0
  -12.2964   16.3244   74.1942 F   0  0  0  0  0  0  0  0  0  0  0  0
  -11.6862   15.9405   71.8773 C   0  0  0  0  0  0  0  0  0  0  0  0
  -12.0150   13.0772   68.0945 S   0  0  0  0  0  0  0  0  0  0  0  0
  -11.7717   10.9064   66.0197 H   0  0  0  0  0  0  0  0  0  0  0  0
  -10.4901   11.6386   65.0219 H   0  0  0  0  0  0  0  0  0  0  0  0
  -10.0540   10.6694   66.5385 H   0  0  0  0  0  0  0  0  0  0  0  0
  -11.1455   16.4960   69.3636 H   0  0  0  0  0  0  0  0  0  0  0  0
  -12.8759   15.8557   69.2468 H   0  0  0  0  0  0  0  0  0  0  0  0
  -12.9091   13.5727   69.9175 H   0  0  0  0  0  0  0  0  0  0  0  0
  -11.8956   13.0236   71.2733 H   0  0  0  0  0  0  0  0  0  0  0  0
  -14.0588   12.9681   72.0948 H   0  0  0  0  0  0  0  0  0  0  0  0
  -14.6151   14.4168   71.2333 H   0  0  0  0  0  0  0  0  0  0  0  0
  -14.1130   14.5325   73.9165 H   0  0  0  0  0  0  0  0  0  0  0  0
  -11.9832   16.9694   71.5167 H   0  0  0  0  0  0  0  0  0  0  0  0
  -10.6354   16.0936   72.2642 H   0  0  0  0  0  0  0  0  0  0  0  0
  1  2  1  0  0  0  0
  2  3  2  0  0  0  0
  3  4  1  0  0  0  0
  4  5  2  0  0  0  0
  5  6  1  0  0  0  0
  6  7  1  0  0  0  0
  7  8  1  0  0  0  0
  8  9  1  0  0  0  0
  9 10  1  0  0  0  0
 10 11  2  0  0  0  0
 11 12  1  0  0  0  0
 11 13  1  0  0  0  0
  5 14  1  0  0  0  0
 14  2  1  0  0  0  0
 13  7  1  0  0  0  0
  1 15  1  0  0  0  0
  1 16  1  0  0  0  0
  1 17  1  0  0  0  0
  6 18  1  0  0  0  0
  6 19  1  0  0  0  0
  8 20  1  0  0  0  0
  8 21  1  0  0  0  0
  9 22  1  0  0  0  0
  9 23  1  0  0  0  0
 10 24  1  0  0  0  0
 13 25  1  0  0  0  0
 13 26  1  0  0  0  0
M  END
> <Gold.Version>
2022.1.0

> <Gold.Id.Protein>
6LU7|6LU7_protein|mol2

> <Gold.PLP.Fitness>
40.0478

> <Gold.PLP.PLP>
-40.1290

> <Gold.PLP.part.hbond>
0.0000

> <Gold.PLP.part.metal>
0.0000

> <Gold.PLP.part.buried>
-5.6316

> <Gold.PLP.part.nonpolar>
-35.5358

> <Gold.PLP.part.repulsive>
0.2128

> <Gold.PLP.ligand.clash>
0.0000

> <Gold.PLP.ligand.torsion>
0.1191

> <Gold.PLP.Chemscore.Hbond>
0.0000

> <Gold.PLP.Chemscore.CHOScore>
0.0000

> <Gold.PLP.Chemscore.Metal>
0.0000

> <Gold.PLP.Chemscore.Internal.Correction>
0.1570

> <Gold.Protein.RotatedTorsions>
[ 3973 1471 1470 1467 ] final   88.43 input   60.00 | X-H torsion
[ 3372  414  413  411 ] final   33.99 input   60.00 | X-H torsion
[ 4268 1114 1113 1110 ] final  -56.65 input   59.99 | X-H torsion
[ 4409  924  923  921 ] final  164.51 input   59.99 | X-H torsion
[ 4183 1244 1243 1241 ] final  108.50 input   59.99 | X-H torsion
[ 3800  178  177  174 ] final  -77.59 input   60.00 | X-H torsion
[ 3793  171  170  167 ] final  165.07 input   60.00 | X-H torsion
[ 3576  185  184  181 ] final  -31.51 input   60.00 | X-H torsion
[ 3523  346  345  342 ] final   69.80 input   60.01 | X-H torsion
[ 3515  339  338  335 ] final  116.82 input   60.00 | X-H torsion
[ 3663  154  153  150 ] final   36.73 input   60.00 | X-H torsion
[ 4280 1130 1129 1126 ] final  113.05 input   60.00 | X-H torsion

> <Gold.Protein.ActiveResidues>
 VAL20   THR21   CYS22   GLY23   THR24   THR25   THR26   LEU27   ASN28   PRO39  
 ARG40   HIS41   VAL42   CYS44   THR45   SER46   ASP48   MET49   LEU50   PRO52  
 TYR54   TYR118  ASN119  ILE136  GLY138  SER139  PHE140  LEU141  ASN142  GLY143 
 SER144  CYS145  GLY146  SER147  TYR161  HIS163  HIS164  MET165  GLU166  LEU167 
 PRO168  THR169  GLY170  VAL171  HIS172  ALA173  PHE181  PHE185  VAL186  ASP187 
 ARG188  GLN189  THR190  ALA191  GLN192  ALA193 

> <Gold.Protein.RotatedAtoms>
  -13.9337   18.1799   75.5855 H   0  0  0  0  0  0  0  0  0  0  0  0  # atno 3372 bound_to 414 
   -3.1387   22.2861   74.7573 H   0  0  0  0  0  0  0  0  0  0  0  0  # atno 3515 bound_to 339 
   -2.7077   18.4988   73.1835 H   0  0  0  0  0  0  0  0  0  0  0  0  # atno 3523 bound_to 346 
   -8.6470   25.3039   63.6950 H   0  0  0  0  0  0  0  0  0  0  0  0  # atno 3576 bound_to 185 
   -8.5755   29.1602   65.2011 H   0  0  0  0  0  0  0  0  0  0  0  0  # atno 3663 bound_to 154 
   -1.9010   23.6409   72.1425 H   0  0  0  0  0  0  0  0  0  0  0  0  # atno 3793 bound_to 171 
   -6.7445   22.3476   71.4653 H   0  0  0  0  0  0  0  0  0  0  0  0  # atno 3800 bound_to 178 
  -15.5758    7.3035   77.6138 H   0  0  0  0  0  0  0  0  0  0  0  0  # atno 3973 bound_to 1471
  -20.5031   12.6562   62.9701 H   0  0  0  0  0  0  0  0  0  0  0  0  # atno 4183 bound_to 1244
  -12.4953   15.9435   61.8979 H   0  0  0  0  0  0  0  0  0  0  0  0  # atno 4268 bound_to 1114
  -15.5281   18.9684   59.4325 H   0  0  0  0  0  0  0  0  0  0  0  0  # atno 4280 bound_to 1130
  -10.6542   14.9854   57.8330 H   0  0  0  0  0  0  0  0  0  0  0  0  # atno 4409 bound_to 924 
  -14.9700    8.6533   76.9363 LP  0  0  0  0  0  0  0  0  0  0  0  0  # atno 4696 bound_to 1471
  -15.4869    8.6749   78.4852 LP  0  0  0  0  0  0  0  0  0  0  0  0  # atno 4697 bound_to 1471
  -15.4248   17.7717   75.0776 LP  0  0  0  0  0  0  0  0  0  0  0  0  # atno 4731 bound_to 414 
  -14.7429   16.9833   76.3346 LP  0  0  0  0  0  0  0  0  0  0  0  0  # atno 4732 bound_to 414 
  -13.3486   15.1303   60.7761 LP  0  0  0  0  0  0  0  0  0  0  0  0  # atno 4733 bound_to 1114
  -14.0763   16.2692   61.6925 LP  0  0  0  0  0  0  0  0  0  0  0  0  # atno 4734 bound_to 1114
  -11.0543   15.0746   56.2582 LP  0  0  0  0  0  0  0  0  0  0  0  0  # atno 4763 bound_to 924 
  -12.1607   15.4281   57.4060 LP  0  0  0  0  0  0  0  0  0  0  0  0  # atno 4764 bound_to 924 
  -20.9530   12.8854   64.5170 LP  0  0  0  0  0  0  0  0  0  0  0  0  # atno 4771 bound_to 1244
  -19.9101   13.9208   63.8050 LP  0  0  0  0  0  0  0  0  0  0  0  0  # atno 4772 bound_to 1244
   -7.6374   23.2608   72.4737 LP  0  0  0  0  0  0  0  0  0  0  0  0  # atno 4775 bound_to 178 
   -6.2346   23.8390   71.8700 LP  0  0  0  0  0  0  0  0  0  0  0  0  # atno 4776 bound_to 178 
   -3.4729   23.9408   71.8476 LP  0  0  0  0  0  0  0  0  0  0  0  0  # atno 4779 bound_to 171 
   -2.5931   24.9859   72.7422 LP  0  0  0  0  0  0  0  0  0  0  0  0  # atno 4780 bound_to 171 
   -7.2105   25.7090   63.0469 LP  0  0  0  0  0  0  0  0  0  0  0  0  # atno 4783 bound_to 185 
   -8.0890   26.8242   63.8538 LP  0  0  0  0  0  0  0  0  0  0  0  0  # atno 4784 bound_to 185 
   -3.5423   17.2076   72.6503 LP  0  0  0  0  0  0  0  0  0  0  0  0  # atno 4785 bound_to 346 
   -1.9140   17.1442   72.7559 LP  0  0  0  0  0  0  0  0  0  0  0  0  # atno 4786 bound_to 346 
   -3.6137   20.7744   74.3871 LP  0  0  0  0  0  0  0  0  0  0  0  0  # atno 4787 bound_to 339 
   -2.7160   21.0469   75.7236 LP  0  0  0  0  0  0  0  0  0  0  0  0  # atno 4788 bound_to 339 
   -7.2327   28.2927   65.5054 LP  0  0  0  0  0  0  0  0  0  0  0  0  # atno 4797 bound_to 154 
   -7.1113   29.8452   65.0137 LP  0  0  0  0  0  0  0  0  0  0  0  0  # atno 4798 bound_to 154 

$$$$
