unknown|prepared_Mpro-x0195|sdf|1|dock5
  -GOLD-   5 72214353D 1   1.00000     0.00000

 29 30  0  0  0  0  0  0  0  0  1 V2000
  -11.2298   15.1093   69.1677 C   0  0  0  0  0  0  0  0  0  0  0  0
  -11.8355   14.9881   70.4835 N   0  0  0  0  0  0  0  0  0  0  0  0
  -11.9114   16.2001   71.2722 C   0  0  0  0  0  0  0  0  0  0  0  0
  -12.8206   16.1286   72.4404 C   0  0  0  0  0  0  0  0  0  0  0  0
  -13.7828   14.9876   72.4571 C   0  0  0  0  0  0  0  0  0  0  0  0
  -13.2882   13.7198   71.9340 C   0  0  0  0  0  0  0  0  0  0  0  0
  -13.7887   12.5317   72.4205 C   0  0  0  0  0  0  0  0  0  0  0  0
  -13.2869   11.3609   71.8900 C   0  0  0  0  0  0  0  0  0  0  0  0
  -12.3099   11.3677   70.8986 C   0  0  0  0  0  0  0  0  0  0  0  0
  -11.8168   12.5613   70.4198 C   0  0  0  0  0  0  0  0  0  0  0  0
  -12.3204   13.7408   70.9523 C   0  0  0  0  0  0  0  0  0  0  0  0
  -11.6757    9.8967   70.2283 S   0  0  0  0  0  0  0  0  0  0  0  0
  -10.3958    9.5300   70.9542 O   0  0  0  0  0  0  0  0  0  0  0  0
  -11.3864   10.1010   68.7904 O   0  0  0  0  0  0  0  0  0  0  0  0
  -12.7949    8.6173   70.5069 N   0  0  0  0  0  0  0  0  0  0  0  0
  -10.1672   14.7890   69.1712 H   0  0  0  0  0  0  0  0  0  0  0  0
  -11.3043   16.1497   68.7763 H   0  0  0  0  0  0  0  0  0  0  0  0
  -11.7347   14.4640   68.4117 H   0  0  0  0  0  0  0  0  0  0  0  0
  -12.2624   17.0029   70.5892 H   0  0  0  0  0  0  0  0  0  0  0  0
  -10.8701   16.4647   71.5555 H   0  0  0  0  0  0  0  0  0  0  0  0
  -13.4051   17.0672   72.5452 H   0  0  0  0  0  0  0  0  0  0  0  0
  -12.1981   16.0584   73.3631 H   0  0  0  0  0  0  0  0  0  0  0  0
  -14.7207   15.2438   71.8994 H   0  0  0  0  0  0  0  0  0  0  0  0
  -14.1320   14.8081   73.5128 H   0  0  0  0  0  0  0  0  0  0  0  0
  -14.5465   12.5331   73.1895 H   0  0  0  0  0  0  0  0  0  0  0  0
  -13.6265   10.3862   72.2170 H   0  0  0  0  0  0  0  0  0  0  0  0
  -11.0690   12.6389   69.6618 H   0  0  0  0  0  0  0  0  0  0  0  0
  -13.3215    8.3560   69.6422 H   0  0  0  0  0  0  0  0  0  0  0  0
  -12.3393    7.7907   70.9460 H   0  0  0  0  0  0  0  0  0  0  0  0
  1  2  1  0  0  0  0
  2  3  1  0  0  0  0
  3  4  1  0  0  0  0
  4  5  1  0  0  0  0
  5  6  1  0  0  0  0
  6  7  2  0  0  0  0
  7  8  1  0  0  0  0
  8  9  2  0  0  0  0
  9 10  1  0  0  0  0
 10 11  2  0  0  0  0
  9 12  1  0  0  0  0
 12 13  2  0  0  0  0
 12 14  2  0  0  0  0
 12 15  1  0  0  0  0
 11  2  1  0  0  0  0
  6 11  1  0  0  0  0
  1 16  1  0  0  0  0
  1 17  1  0  0  0  0
  1 18  1  0  0  0  0
  3 19  1  0  0  0  0
  3 20  1  0  0  0  0
  4 21  1  0  0  0  0
  4 22  1  0  0  0  0
  5 23  1  0  0  0  0
  5 24  1  0  0  0  0
  7 25  1  0  0  0  0
  8 26  1  0  0  0  0
 10 27  1  0  0  0  0
 15 28  1  0  0  0  0
 15 29  1  0  0  0  0
M  END
> <Gold.Version>
2022.1.0

> <Gold.Id.Protein>
6LU7|6LU7_protein|mol2

> <Gold.PLP.Fitness>
44.4505

> <Gold.PLP.PLP>
-41.4982

> <Gold.PLP.part.hbond>
-1.0000

> <Gold.PLP.part.metal>
0.0000

> <Gold.PLP.part.buried>
-3.6013

> <Gold.PLP.part.nonpolar>
-38.1092

> <Gold.PLP.part.repulsive>
0.2229

> <Gold.PLP.ligand.clash>
0.0000

> <Gold.PLP.ligand.torsion>
1.0893

> <Gold.PLP.Chemscore.Hbond>
0.9913

> <Gold.PLP.Chemscore.CHOScore>
0.0000

> <Gold.PLP.Chemscore.Metal>
0.0000

> <Gold.Chemscore.Hbonds>
donor molecule, donor type, donor heavy atom, donor atom, acceptor molecule, acceptor atom, score
      L1  H    15    28       P1  1284  0.99

> <Gold.PLP.Chemscore.Internal.Correction>
2.1572

> <Gold.Protein.RotatedTorsions>
[ 3973 1471 1470 1467 ] final  -20.99 input   60.00 | X-H torsion
[ 3372  414  413  411 ] final  125.65 input   60.00 | X-H torsion
[ 4268 1114 1113 1110 ] final -150.39 input   59.99 | X-H torsion
[ 4409  924  923  921 ] final  167.27 input   59.99 | X-H torsion
[ 4183 1244 1243 1241 ] final   78.27 input   59.99 | X-H torsion
[ 3800  178  177  174 ] final  -71.88 input   60.00 | X-H torsion
[ 3793  171  170  167 ] final   64.43 input   60.00 | X-H torsion
[ 3576  185  184  181 ] final    0.88 input   60.00 | X-H torsion
[ 3523  346  345  342 ] final   21.31 input   60.01 | X-H torsion
[ 3515  339  338  335 ] final -144.79 input   60.00 | X-H torsion
[ 3663  154  153  150 ] final   82.80 input   60.00 | X-H torsion
[ 4280 1130 1129 1126 ] final   -7.52 input   60.00 | X-H torsion

> <Gold.Protein.ActiveResidues>
 VAL20   THR21   CYS22   GLY23   THR24   THR25   THR26   LEU27   ASN28   PRO39  
 ARG40   HIS41   VAL42   CYS44   THR45   SER46   ASP48   MET49   LEU50   PRO52  
 TYR54   TYR118  ASN119  ILE136  GLY138  SER139  PHE140  LEU141  ASN142  GLY143 
 SER144  CYS145  GLY146  SER147  TYR161  HIS163  HIS164  MET165  GLU166  LEU167 
 PRO168  THR169  GLY170  VAL171  HIS172  ALA173  PHE181  PHE185  VAL186  ASP187 
 ARG188  GLN189  THR190  ALA191  GLN192  ALA193 

> <Gold.Protein.RotatedAtoms>
  -14.3307   17.1800   76.3894 H   0  0  0  0  0  0  0  0  0  0  0  0  # atno 3372 bound_to 414 
   -2.6510   21.3925   75.7434 H   0  0  0  0  0  0  0  0  0  0  0  0  # atno 3515 bound_to 339 
   -3.4114   18.2291   73.0309 H   0  0  0  0  0  0  0  0  0  0  0  0  # atno 3523 bound_to 346 
   -8.8136   25.7460   63.9177 H   0  0  0  0  0  0  0  0  0  0  0  0  # atno 3576 bound_to 185 
   -8.2394   29.7828   65.0104 H   0  0  0  0  0  0  0  0  0  0  0  0  # atno 3663 bound_to 154 
   -3.2881   23.7010   71.7571 H   0  0  0  0  0  0  0  0  0  0  0  0  # atno 3793 bound_to 171 
   -6.6650   22.3846   71.4331 H   0  0  0  0  0  0  0  0  0  0  0  0  # atno 3800 bound_to 178 
  -14.9866    8.4970   76.8629 H   0  0  0  0  0  0  0  0  0  0  0  0  # atno 3973 bound_to 1471
  -20.7979   12.4250   63.2833 H   0  0  0  0  0  0  0  0  0  0  0  0  # atno 4183 bound_to 1244
  -12.9409   15.1204   60.9024 H   0  0  0  0  0  0  0  0  0  0  0  0  # atno 4268 bound_to 1114
  -16.1321   20.4062   58.9720 H   0  0  0  0  0  0  0  0  0  0  0  0  # atno 4280 bound_to 1130
  -10.6854   14.9953   57.8638 H   0  0  0  0  0  0  0  0  0  0  0  0  # atno 4409 bound_to 924 
  -15.4198    8.8107   78.3998 LP  0  0  0  0  0  0  0  0  0  0  0  0  # atno 4696 bound_to 1471
  -15.6304    7.3155   77.7780 LP  0  0  0  0  0  0  0  0  0  0  0  0  # atno 4697 bound_to 1471
  -14.2066   18.3339   75.2487 LP  0  0  0  0  0  0  0  0  0  0  0  0  # atno 4731 bound_to 414 
  -15.5613   17.4280   75.3539 LP  0  0  0  0  0  0  0  0  0  0  0  0  # atno 4732 bound_to 414 
  -14.2160   16.0111   61.3804 LP  0  0  0  0  0  0  0  0  0  0  0  0  # atno 4733 bound_to 1114
  -12.7601   16.2172   62.0908 LP  0  0  0  0  0  0  0  0  0  0  0  0  # atno 4734 bound_to 1114
  -11.0126   15.0623   56.2712 LP  0  0  0  0  0  0  0  0  0  0  0  0  # atno 4763 bound_to 924 
  -12.1709   15.4304   57.3619 LP  0  0  0  0  0  0  0  0  0  0  0  0  # atno 4764 bound_to 924 
  -20.7132   13.2908   64.6585 LP  0  0  0  0  0  0  0  0  0  0  0  0  # atno 4771 bound_to 1244
  -19.8530   13.7482   63.3480 LP  0  0  0  0  0  0  0  0  0  0  0  0  # atno 4772 bound_to 1244
   -7.6628   23.1741   72.4476 LP  0  0  0  0  0  0  0  0  0  0  0  0  # atno 4775 bound_to 178 
   -6.2892   23.8885   71.9284 LP  0  0  0  0  0  0  0  0  0  0  0  0  # atno 4776 bound_to 178 
   -2.8983   24.9992   72.6574 LP  0  0  0  0  0  0  0  0  0  0  0  0  # atno 4779 bound_to 171 
   -1.7706   23.8671   72.3206 LP  0  0  0  0  0  0  0  0  0  0  0  0  # atno 4780 bound_to 171 
   -7.5053   25.2742   63.0730 LP  0  0  0  0  0  0  0  0  0  0  0  0  # atno 4783 bound_to 185 
   -7.6266   26.8138   63.6035 LP  0  0  0  0  0  0  0  0  0  0  0  0  # atno 4784 bound_to 185 
   -2.9223   16.7577   72.5372 LP  0  0  0  0  0  0  0  0  0  0  0  0  # atno 4785 bound_to 346 
   -1.8253   17.8657   73.0226 LP  0  0  0  0  0  0  0  0  0  0  0  0  # atno 4786 bound_to 346 
   -3.3288   22.1696   74.4846 LP  0  0  0  0  0  0  0  0  0  0  0  0  # atno 4787 bound_to 339 
   -3.4921   20.5516   74.6329 LP  0  0  0  0  0  0  0  0  0  0  0  0  # atno 4788 bound_to 339 
   -7.9696   28.2548   65.5008 LP  0  0  0  0  0  0  0  0  0  0  0  0  # atno 4797 bound_to 154 
   -6.7128   29.2561   65.2104 LP  0  0  0  0  0  0  0  0  0  0  0  0  # atno 4798 bound_to 154 

$$$$
