unknown|prepared_Mpro-x0540|sdf|1|dock1
  -GOLD-   5 72214353D 1   1.00000     0.00000

 39 40  0  0  0  0  0  0  0  0  1 V2000
  -10.6389   15.9949   69.5225 O   0  0  0  0  0  0  0  0  0  0  0  0
  -11.6020   15.5941   68.8471 C   0  0  0  0  0  0  0  0  0  0  0  0
  -11.5411   15.3886   67.4583 N   0  0  0  0  0  0  0  0  0  0  0  0
  -10.3338   15.6469   66.7353 C   0  0  0  0  0  0  0  0  0  0  0  0
  -10.5349   16.7889   65.8000 C   0  0  0  0  0  0  0  0  0  0  0  0
   -9.9784   18.0653   66.3304 C   0  0  0  0  0  0  0  0  0  0  0  0
  -10.7675   19.1355   66.6824 C   0  0  0  0  0  0  0  0  0  0  0  0
  -10.1564   20.2931   67.1712 C   0  0  0  0  0  0  0  0  0  0  0  0
   -8.8313   20.3771   67.3010 N   0  0  0  0  0  0  0  0  0  0  0  0
   -8.0257   19.3510   66.9670 C   0  0  0  0  0  0  0  0  0  0  0  0
   -8.6142   18.1844   66.4764 C   0  0  0  0  0  0  0  0  0  0  0  0
  -12.8193   15.3415   69.5684 N   0  0  0  0  0  0  0  0  0  0  0  0
  -12.9067   15.5451   70.9963 C   0  0  0  0  0  0  0  0  0  0  0  0
  -11.9250   14.6623   71.7093 C   0  0  0  0  0  0  0  0  0  0  0  0
  -12.2996   13.2385   71.4228 C   0  0  0  0  0  0  0  0  0  0  0  0
  -13.6306   12.9425   72.0447 C   0  0  0  0  0  0  0  0  0  0  0  0
  -14.4449   14.1242   72.3931 C   0  0  0  0  0  0  0  0  0  0  0  0
  -14.2950   15.3109   71.5008 C   0  0  0  0  0  0  0  0  0  0  0  0
  -12.3847   15.0462   66.9621 H   0  0  0  0  0  0  0  0  0  0  0  0
   -9.4595   15.8188   67.4179 H   0  0  0  0  0  0  0  0  0  0  0  0
  -10.0929   14.7399   66.1209 H   0  0  0  0  0  0  0  0  0  0  0  0
  -11.5860   16.9378   65.5499 H   0  0  0  0  0  0  0  0  0  0  0  0
   -9.9946   16.5299   64.8460 H   0  0  0  0  0  0  0  0  0  0  0  0
  -11.8202   19.0565   66.5746 H   0  0  0  0  0  0  0  0  0  0  0  0
  -10.7747   21.1405   67.4505 H   0  0  0  0  0  0  0  0  0  0  0  0
   -6.9626   19.4615   67.0877 H   0  0  0  0  0  0  0  0  0  0  0  0
   -7.9360   17.3872   66.2208 H   0  0  0  0  0  0  0  0  0  0  0  0
  -13.6521   15.0039   69.0223 H   0  0  0  0  0  0  0  0  0  0  0  0
  -12.5662   16.6076   71.1945 H   0  0  0  0  0  0  0  0  0  0  0  0
  -10.8871   14.9000   71.3996 H   0  0  0  0  0  0  0  0  0  0  0  0
  -12.0033   14.8079   72.8140 H   0  0  0  0  0  0  0  0  0  0  0  0
  -12.2604   13.0506   70.3424 H   0  0  0  0  0  0  0  0  0  0  0  0
  -11.4946   12.5657   71.8536 H   0  0  0  0  0  0  0  0  0  0  0  0
  -14.1697   12.2550   71.3296 H   0  0  0  0  0  0  0  0  0  0  0  0
  -13.4508   12.3252   72.9495 H   0  0  0  0  0  0  0  0  0  0  0  0
  -14.2674   14.4431   73.4613 H   0  0  0  0  0  0  0  0  0  0  0  0
  -15.5218   13.8274   72.3698 H   0  0  0  0  0  0  0  0  0  0  0  0
  -14.9756   15.2600   70.6248 H   0  0  0  0  0  0  0  0  0  0  0  0
  -14.6008   16.2094   72.0766 H   0  0  0  0  0  0  0  0  0  0  0  0
  1  2  2  0  0  0  0
  2  3  1  0  0  0  0
  3  4  1  0  0  0  0
  4  5  1  0  0  0  0
  5  6  1  0  0  0  0
  6  7  2  0  0  0  0
  7  8  1  0  0  0  0
  8  9  2  0  0  0  0
  9 10  1  0  0  0  0
 10 11  2  0  0  0  0
  2 12  1  0  0  0  0
 12 13  1  0  0  0  0
 13 14  1  0  0  0  0
 14 15  1  0  0  0  0
 15 16  1  0  0  0  0
 16 17  1  0  0  0  0
 17 18  1  0  0  0  0
  6 11  1  0  0  0  0
 18 13  1  0  0  0  0
  3 19  1  0  0  0  0
  4 20  1  0  0  0  0
  4 21  1  0  0  0  0
  5 22  1  0  0  0  0
  5 23  1  0  0  0  0
  7 24  1  0  0  0  0
  8 25  1  0  0  0  0
 10 26  1  0  0  0  0
 11 27  1  0  0  0  0
 12 28  1  0  0  0  0
 13 29  1  0  0  0  0
 14 30  1  0  0  0  0
 14 31  1  0  0  0  0
 15 32  1  0  0  0  0
 15 33  1  0  0  0  0
 16 34  1  0  0  0  0
 16 35  1  0  0  0  0
 17 36  1  0  0  0  0
 17 37  1  0  0  0  0
 18 38  1  0  0  0  0
 18 39  1  0  0  0  0
M  END
> <Gold.Version>
2022.1.0

> <Gold.Id.Protein>
6LU7|6LU7_protein|mol2

> <Gold.PLP.Fitness>
48.9019

> <Gold.PLP.PLP>
-46.5706

> <Gold.PLP.part.hbond>
-1.0000

> <Gold.PLP.part.metal>
0.0000

> <Gold.PLP.part.buried>
-6.7897

> <Gold.PLP.part.nonpolar>
-39.2116

> <Gold.PLP.part.repulsive>
0.2656

> <Gold.PLP.ligand.clash>
0.0000

> <Gold.PLP.ligand.torsion>
0.3579

> <Gold.PLP.Chemscore.Hbond>
1.0000

> <Gold.PLP.Chemscore.CHOScore>
0.0000

> <Gold.PLP.Chemscore.Metal>
0.0000

> <Gold.Chemscore.Hbonds>
donor molecule, donor type, donor heavy atom, donor atom, acceptor molecule, acceptor atom, score
      L1  H    12    28       P1  1266  1.00

> <Gold.PLP.Chemscore.Internal.Correction>
0.0471

> <Gold.Protein.RotatedTorsions>
[ 3973 1471 1470 1467 ] final  170.39 input   60.00 | X-H torsion
[ 3372  414  413  411 ] final  140.37 input   60.00 | X-H torsion
[ 4268 1114 1113 1110 ] final  172.34 input   59.99 | X-H torsion
[ 4409  924  923  921 ] final   89.32 input   59.99 | X-H torsion
[ 4183 1244 1243 1241 ] final   86.00 input   59.99 | X-H torsion
[ 3800  178  177  174 ] final -142.86 input   60.00 | X-H torsion
[ 3793  171  170  167 ] final -101.48 input   60.00 | X-H torsion
[ 3576  185  184  181 ] final  154.65 input   60.00 | X-H torsion
[ 3523  346  345  342 ] final  107.21 input   60.01 | X-H torsion
[ 3515  339  338  335 ] final  -83.23 input   60.00 | X-H torsion
[ 3663  154  153  150 ] final  147.95 input   60.00 | X-H torsion
[ 4280 1130 1129 1126 ] final  -66.54 input   60.00 | X-H torsion

> <Gold.Protein.ActiveResidues>
 VAL20   THR21   CYS22   GLY23   THR24   THR25   THR26   LEU27   ASN28   PRO39  
 ARG40   HIS41   VAL42   CYS44   THR45   SER46   ASP48   MET49   LEU50   PRO52  
 TYR54   TYR118  ASN119  ILE136  GLY138  SER139  PHE140  LEU141  ASN142  GLY143 
 SER144  CYS145  GLY146  SER147  TYR161  HIS163  HIS164  MET165  GLU166  LEU167 
 PRO168  THR169  GLY170  VAL171  HIS172  ALA173  PHE181  PHE185  VAL186  ASP187 
 ARG188  GLN189  THR190  ALA191  GLN192  ALA193 

> <Gold.Protein.RotatedAtoms>
  -14.5401   17.0634   76.3810 H   0  0  0  0  0  0  0  0  0  0  0  0  # atno 3372 bound_to 414 
   -2.9986   20.5659   75.4060 H   0  0  0  0  0  0  0  0  0  0  0  0  # atno 3515 bound_to 339 
   -2.1435   18.2957   73.1549 H   0  0  0  0  0  0  0  0  0  0  0  0  # atno 3523 bound_to 346 
   -7.2688   26.5113   63.3235 H   0  0  0  0  0  0  0  0  0  0  0  0  # atno 3576 bound_to 185 
   -7.2393   29.9079   64.9932 H   0  0  0  0  0  0  0  0  0  0  0  0  # atno 3663 bound_to 154 
   -2.1953   24.8197   72.7605 H   0  0  0  0  0  0  0  0  0  0  0  0  # atno 3793 bound_to 171 
   -7.5496   22.5120   72.0523 H   0  0  0  0  0  0  0  0  0  0  0  0  # atno 3800 bound_to 178 
  -15.6693    8.0938   78.5489 H   0  0  0  0  0  0  0  0  0  0  0  0  # atno 3973 bound_to 1471
  -20.7284   12.4669   63.1866 H   0  0  0  0  0  0  0  0  0  0  0  0  # atno 4183 bound_to 1244
  -13.5205   15.1841   60.7687 H   0  0  0  0  0  0  0  0  0  0  0  0  # atno 4268 bound_to 1114
  -16.4238   20.0339   58.1804 H   0  0  0  0  0  0  0  0  0  0  0  0  # atno 4280 bound_to 1130
  -10.5126   14.9222   56.7013 H   0  0  0  0  0  0  0  0  0  0  0  0  # atno 4409 bound_to 924 
  -15.3460    7.4835   77.0755 LP  0  0  0  0  0  0  0  0  0  0  0  0  # atno 4696 bound_to 1471
  -15.0167    9.0488   77.4043 LP  0  0  0  0  0  0  0  0  0  0  0  0  # atno 4697 bound_to 1471
  -14.0418   18.2742   75.4148 LP  0  0  0  0  0  0  0  0  0  0  0  0  # atno 4731 bound_to 414 
  -15.5153   17.6051   75.1963 LP  0  0  0  0  0  0  0  0  0  0  0  0  # atno 4732 bound_to 414 
  -13.9675   16.3498   61.8124 LP  0  0  0  0  0  0  0  0  0  0  0  0  # atno 4733 bound_to 1114
  -12.4249   15.8144   61.7934 LP  0  0  0  0  0  0  0  0  0  0  0  0  # atno 4734 bound_to 1114
  -12.0716   15.3883   56.6939 LP  0  0  0  0  0  0  0  0  0  0  0  0  # atno 4763 bound_to 924 
  -11.2860   15.1780   58.1100 LP  0  0  0  0  0  0  0  0  0  0  0  0  # atno 4764 bound_to 924 
  -20.7843   13.1862   64.6451 LP  0  0  0  0  0  0  0  0  0  0  0  0  # atno 4771 bound_to 1244
  -19.8519   13.8106   63.4588 LP  0  0  0  0  0  0  0  0  0  0  0  0  # atno 4772 bound_to 1244
   -6.9256   23.9801   72.3738 LP  0  0  0  0  0  0  0  0  0  0  0  0  # atno 4775 bound_to 178 
   -6.1357   22.9542   71.3787 LP  0  0  0  0  0  0  0  0  0  0  0  0  # atno 4776 bound_to 178 
   -2.2031   23.4243   71.9234 LP  0  0  0  0  0  0  0  0  0  0  0  0  # atno 4779 bound_to 171 
   -3.5664   24.3152   72.0439 LP  0  0  0  0  0  0  0  0  0  0  0  0  # atno 4780 bound_to 171 
   -8.7184   26.2729   64.0235 LP  0  0  0  0  0  0  0  0  0  0  0  0  # atno 4783 bound_to 185 
   -7.9692   25.0443   63.2515 LP  0  0  0  0  0  0  0  0  0  0  0  0  # atno 4784 bound_to 185 
   -3.6517   17.7698   72.8441 LP  0  0  0  0  0  0  0  0  0  0  0  0  # atno 4785 bound_to 346 
   -2.3728   16.7866   72.5909 LP  0  0  0  0  0  0  0  0  0  0  0  0  # atno 4786 bound_to 346 
   -2.8081   22.1783   75.2970 LP  0  0  0  0  0  0  0  0  0  0  0  0  # atno 4787 bound_to 339 
   -3.6627   21.3754   74.1604 LP  0  0  0  0  0  0  0  0  0  0  0  0  # atno 4788 bound_to 339 
   -8.5817   29.0224   65.2425 LP  0  0  0  0  0  0  0  0  0  0  0  0  # atno 4797 bound_to 154 
   -7.1079   28.3625   65.4860 LP  0  0  0  0  0  0  0  0  0  0  0  0  # atno 4798 bound_to 154 

$$$$
