unknown|prepared_Mpro-x1093|sdf|1|dock5
  -GOLD-   5 72214353D 1   1.00000     0.00000

 37 39  0  0  0  0  0  0  0  0  1 V2000
  -13.6099   14.5929   71.5924 C   0  0  0  0  0  0  0  0  0  0  0  0
  -12.5109   14.9857   70.7762 N   0  0  0  0  0  0  0  0  0  0  0  0
  -11.7138   16.0601   71.2533 C   0  0  0  0  0  0  0  0  0  0  0  0
  -11.1070   16.8006   70.0375 C   0  0  0  0  0  0  0  0  0  0  0  0
  -10.6137   15.7692   69.1113 N   0  0  0  0  0  0  0  0  0  0  0  0
  -10.4974   14.4163   69.6013 C   0  0  0  0  0  0  0  0  0  0  0  0
  -11.8776   13.9705   70.0227 C   0  0  0  0  0  0  0  0  0  0  0  0
  -10.2824   16.1280   67.8032 C   0  0  0  0  0  0  0  0  0  0  0  0
  -10.4134   17.3268   67.4342 O   0  0  0  0  0  0  0  0  0  0  0  0
   -9.7813   15.1126   66.8572 C   0  0  0  0  0  0  0  0  0  0  0  0
  -10.6741   14.9422   65.6840 C   0  0  0  0  0  0  0  0  0  0  0  0
  -11.2643   15.9117   64.8947 C   0  0  0  0  0  0  0  0  0  0  0  0
  -12.0060   15.3679   63.9267 N   0  0  0  0  0  0  0  0  0  0  0  0
  -11.8995   14.0281   64.0850 C   0  0  0  0  0  0  0  0  0  0  0  0
  -12.4635   13.0437   63.3566 N   0  0  0  0  0  0  0  0  0  0  0  0
  -12.2367   11.7511   63.6716 C   0  0  0  0  0  0  0  0  0  0  0  0
  -11.4272   11.4107   64.7404 C   0  0  0  0  0  0  0  0  0  0  0  0
  -10.8517   12.4258   65.4839 C   0  0  0  0  0  0  0  0  0  0  0  0
  -11.0856   13.7384   65.1589 C   0  0  0  0  0  0  0  0  0  0  0  0
  -14.5948   14.9672   71.2522 H   0  0  0  0  0  0  0  0  0  0  0  0
  -13.6236   13.4753   71.6357 H   0  0  0  0  0  0  0  0  0  0  0  0
  -13.4503   14.9362   72.6271 H   0  0  0  0  0  0  0  0  0  0  0  0
  -10.9012   15.6444   71.8878 H   0  0  0  0  0  0  0  0  0  0  0  0
  -12.2770   16.7629   71.8619 H   0  0  0  0  0  0  0  0  0  0  0  0
  -11.9298   17.3451   69.5734 H   0  0  0  0  0  0  0  0  0  0  0  0
  -10.2733   17.4023   70.4026 H   0  0  0  0  0  0  0  0  0  0  0  0
  -10.0324   13.7554   68.8576 H   0  0  0  0  0  0  0  0  0  0  0  0
   -9.8686   14.4355   70.5383 H   0  0  0  0  0  0  0  0  0  0  0  0
  -12.4165   13.7130   69.0729 H   0  0  0  0  0  0  0  0  0  0  0  0
  -11.8421   13.0252   70.6064 H   0  0  0  0  0  0  0  0  0  0  0  0
   -9.6459   14.1334   67.3887 H   0  0  0  0  0  0  0  0  0  0  0  0
   -8.7467   15.4074   66.5387 H   0  0  0  0  0  0  0  0  0  0  0  0
  -11.1098   16.9688   65.0850 H   0  0  0  0  0  0  0  0  0  0  0  0
  -12.5615   15.8905   63.1885 H   0  0  0  0  0  0  0  0  0  0  0  0
  -12.6937   10.9461   63.0831 H   0  0  0  0  0  0  0  0  0  0  0  0
  -11.2381   10.3658   65.0025 H   0  0  0  0  0  0  0  0  0  0  0  0
  -10.2187   12.1592   66.3196 H   0  0  0  0  0  0  0  0  0  0  0  0
  1  2  1  0  0  0  0
  2  3  1  0  0  0  0
  3  4  1  0  0  0  0
  4  5  1  0  0  0  0
  5  6  1  0  0  0  0
  6  7  1  0  0  0  0
  5  8  1  0  0  0  0
  8  9  2  0  0  0  0
  8 10  1  0  0  0  0
 10 11  1  0  0  0  0
 11 12  2  0  0  0  0
 12 13  1  0  0  0  0
 13 14  1  0  0  0  0
 14 15  2  0  0  0  0
 15 16  1  0  0  0  0
 16 17  2  0  0  0  0
 17 18  1  0  0  0  0
 18 19  2  0  0  0  0
  7  2  1  0  0  0  0
 19 11  1  0  0  0  0
 19 14  1  0  0  0  0
  1 20  1  0  0  0  0
  1 21  1  0  0  0  0
  1 22  1  0  0  0  0
  3 23  1  0  0  0  0
  3 24  1  0  0  0  0
  4 25  1  0  0  0  0
  4 26  1  0  0  0  0
  6 27  1  0  0  0  0
  6 28  1  0  0  0  0
  7 29  1  0  0  0  0
  7 30  1  0  0  0  0
 10 31  1  0  0  0  0
 10 32  1  0  0  0  0
 12 33  1  0  0  0  0
 13 34  1  0  0  0  0
 16 35  1  0  0  0  0
 17 36  1  0  0  0  0
 18 37  1  0  0  0  0
M  END
> <Gold.Version>
2022.1.0

> <Gold.Id.Protein>
6LU7|6LU7_protein|mol2

> <Gold.PLP.Fitness>
49.6306

> <Gold.PLP.PLP>
-44.0507

> <Gold.PLP.part.hbond>
-2.0000

> <Gold.PLP.part.metal>
0.0000

> <Gold.PLP.part.buried>
-5.5843

> <Gold.PLP.part.nonpolar>
-37.4474

> <Gold.PLP.part.repulsive>
0.7473

> <Gold.PLP.ligand.clash>
0.0000

> <Gold.PLP.ligand.torsion>
0.1741

> <Gold.PLP.Chemscore.Hbond>
0.9760

> <Gold.PLP.Chemscore.CHOScore>
1.0000

> <Gold.PLP.Chemscore.Metal>
0.0000

> <Gold.Chemscore.Hbonds>
donor molecule, donor type, donor heavy atom, donor atom, acceptor molecule, acceptor atom, score
      L1  H    13    34       P1  1114  0.98
      L1  C    16    35       P1  1289  1.00

> <Gold.PLP.Chemscore.Internal.Correction>
0.0001

> <Gold.Protein.RotatedTorsions>
[ 3973 1471 1470 1467 ] final  176.62 input   60.00 | X-H torsion
[ 3372  414  413  411 ] final  -96.03 input   60.00 | X-H torsion
[ 4268 1114 1113 1110 ] final  162.06 input   59.99 | X-H torsion
[ 4409  924  923  921 ] final  178.38 input   59.99 | X-H torsion
[ 4183 1244 1243 1241 ] final  -18.27 input   59.99 | X-H torsion
[ 3800  178  177  174 ] final  -95.16 input   60.00 | X-H torsion
[ 3793  171  170  167 ] final   73.03 input   60.00 | X-H torsion
[ 3576  185  184  181 ] final  -99.27 input   60.00 | X-H torsion
[ 3523  346  345  342 ] final   19.39 input   60.01 | X-H torsion
[ 3515  339  338  335 ] final -168.69 input   60.00 | X-H torsion
[ 3663  154  153  150 ] final  -24.68 input   60.00 | X-H torsion
[ 4280 1130 1129 1126 ] final  -25.23 input   60.00 | X-H torsion

> <Gold.Protein.ActiveResidues>
 VAL20   THR21   CYS22   GLY23   THR24   THR25   THR26   LEU27   ASN28   PRO39  
 ARG40   HIS41   VAL42   CYS44   THR45   SER46   ASP48   MET49   LEU50   PRO52  
 TYR54   TYR118  ASN119  ILE136  GLY138  SER139  PHE140  LEU141  ASN142  GLY143 
 SER144  CYS145  GLY146  SER147  TYR161  HIS163  HIS164  MET165  GLU166  LEU167 
 PRO168  THR169  GLY170  VAL171  HIS172  ALA173  PHE181  PHE185  VAL186  ASP187 
 ARG188  GLN189  THR190  ALA191  GLN192  ALA193 

> <Gold.Protein.RotatedAtoms>
  -15.4910   17.6508   75.1670 H   0  0  0  0  0  0  0  0  0  0  0  0  # atno 3372 bound_to 414 
   -2.6564   21.7665   75.6415 H   0  0  0  0  0  0  0  0  0  0  0  0  # atno 3515 bound_to 339 
   -3.4321   18.2075   73.0215 H   0  0  0  0  0  0  0  0  0  0  0  0  # atno 3523 bound_to 346 
   -7.7683   25.1098   63.1666 H   0  0  0  0  0  0  0  0  0  0  0  0  # atno 3576 bound_to 185 
   -8.1499   28.3473   65.4696 H   0  0  0  0  0  0  0  0  0  0  0  0  # atno 3663 bound_to 154 
   -3.1843   23.6094   71.7336 H   0  0  0  0  0  0  0  0  0  0  0  0  # atno 3793 bound_to 171 
   -6.9933   22.2849   71.5916 H   0  0  0  0  0  0  0  0  0  0  0  0  # atno 3800 bound_to 178 
  -15.6469    8.1920   78.5642 H   0  0  0  0  0  0  0  0  0  0  0  0  # atno 3973 bound_to 1471
  -20.9078   12.9763   64.5625 H   0  0  0  0  0  0  0  0  0  0  0  0  # atno 4183 bound_to 1244
  -13.6750   15.2485   60.7817 H   0  0  0  0  0  0  0  0  0  0  0  0  # atno 4268 bound_to 1114
  -16.2551   20.3874   58.7120 H   0  0  0  0  0  0  0  0  0  0  0  0  # atno 4280 bound_to 1130
  -10.8247   15.0391   57.9713 H   0  0  0  0  0  0  0  0  0  0  0  0  # atno 4409 bound_to 924 
  -15.3872    7.4279   77.1512 LP  0  0  0  0  0  0  0  0  0  0  0  0  # atno 4696 bound_to 1471
  -14.9981    9.0055   77.3132 LP  0  0  0  0  0  0  0  0  0  0  0  0  # atno 4697 bound_to 1471
  -14.5918   17.0347   76.3752 LP  0  0  0  0  0  0  0  0  0  0  0  0  # atno 4731 bound_to 414 
  -14.0077   18.2531   75.4583 LP  0  0  0  0  0  0  0  0  0  0  0  0  # atno 4732 bound_to 414 
  -13.8436   16.4062   61.9127 LP  0  0  0  0  0  0  0  0  0  0  0  0  # atno 4733 bound_to 1114
  -12.3931   15.6931   61.6801 LP  0  0  0  0  0  0  0  0  0  0  0  0  # atno 4734 bound_to 1114
  -10.8521   15.0154   56.3444 LP  0  0  0  0  0  0  0  0  0  0  0  0  # atno 4763 bound_to 924 
  -12.1912   15.4332   57.1805 LP  0  0  0  0  0  0  0  0  0  0  0  0  # atno 4764 bound_to 924 
  -19.8832   13.8995   63.6989 LP  0  0  0  0  0  0  0  0  0  0  0  0  # atno 4771 bound_to 1244
  -20.5724   12.5843   63.0193 LP  0  0  0  0  0  0  0  0  0  0  0  0  # atno 4772 bound_to 1244
   -7.5132   23.5166   72.5194 LP  0  0  0  0  0  0  0  0  0  0  0  0  # atno 4775 bound_to 178 
   -6.1083   23.6465   71.6971 LP  0  0  0  0  0  0  0  0  0  0  0  0  # atno 4776 bound_to 178 
   -3.0269   24.9753   72.6040 LP  0  0  0  0  0  0  0  0  0  0  0  0  # atno 4779 bound_to 171 
   -1.7465   23.9831   72.3976 LP  0  0  0  0  0  0  0  0  0  0  0  0  # atno 4780 bound_to 171 
   -7.3900   26.6698   63.4335 LP  0  0  0  0  0  0  0  0  0  0  0  0  # atno 4783 bound_to 185 
   -8.7946   26.0589   63.9995 LP  0  0  0  0  0  0  0  0  0  0  0  0  # atno 4784 bound_to 185 
   -2.8914   16.7511   72.5372 LP  0  0  0  0  0  0  0  0  0  0  0  0  # atno 4785 bound_to 346 
   -1.8353   17.8941   73.0321 LP  0  0  0  0  0  0  0  0  0  0  0  0  # atno 4786 bound_to 346 
   -3.5119   21.9045   74.2641 LP  0  0  0  0  0  0  0  0  0  0  0  0  # atno 4787 bound_to 339 
   -3.3034   20.4401   74.9560 LP  0  0  0  0  0  0  0  0  0  0  0  0  # atno 4788 bound_to 339 
   -6.7006   29.0607   65.2728 LP  0  0  0  0  0  0  0  0  0  0  0  0  # atno 4797 bound_to 154 
   -8.0721   29.8959   64.9759 LP  0  0  0  0  0  0  0  0  0  0  0  0  # atno 4798 bound_to 154 

$$$$
