unknown|prepared_Mpro-x0195|sdf|1|dock3
  -GOLD-   5 72214353D 1   1.00000     0.00000

 29 30  0  0  0  0  0  0  0  0  1 V2000
  -11.6397   15.9306   69.7855 C   0  0  0  0  0  0  0  0  0  0  0  0
  -12.1412   15.3148   71.0031 N   0  0  0  0  0  0  0  0  0  0  0  0
  -12.3677   16.1996   72.1267 C   0  0  0  0  0  0  0  0  0  0  0  0
  -13.1847   15.6228   73.2204 C   0  0  0  0  0  0  0  0  0  0  0  0
  -13.9462   14.3823   72.8897 C   0  0  0  0  0  0  0  0  0  0  0  0
  -13.2830   13.4371   71.9996 C   0  0  0  0  0  0  0  0  0  0  0  0
  -13.5552   12.0899   72.0992 C   0  0  0  0  0  0  0  0  0  0  0  0
  -12.9011   11.2391   71.2319 C   0  0  0  0  0  0  0  0  0  0  0  0
  -11.9966   11.7135   70.2862 C   0  0  0  0  0  0  0  0  0  0  0  0
  -11.7322   13.0622   70.1956 C   0  0  0  0  0  0  0  0  0  0  0  0
  -12.3894   13.9202   71.0675 C   0  0  0  0  0  0  0  0  0  0  0  0
  -11.1713   10.6462   69.1929 S   0  0  0  0  0  0  0  0  0  0  0  0
  -11.8365   10.7159   67.8320 O   0  0  0  0  0  0  0  0  0  0  0  0
  -11.2506    9.2611   69.7107 O   0  0  0  0  0  0  0  0  0  0  0  0
   -9.5492   11.1881   68.9871 N   0  0  0  0  0  0  0  0  0  0  0  0
  -10.5407   15.8122   69.6854 H   0  0  0  0  0  0  0  0  0  0  0  0
  -11.9046   17.0115   69.7336 H   0  0  0  0  0  0  0  0  0  0  0  0
  -12.0755   15.4673   68.8700 H   0  0  0  0  0  0  0  0  0  0  0  0
  -12.8830   17.0982   71.7255 H   0  0  0  0  0  0  0  0  0  0  0  0
  -11.3687   16.5413   72.4728 H   0  0  0  0  0  0  0  0  0  0  0  0
  -13.9070   16.3703   73.6116 H   0  0  0  0  0  0  0  0  0  0  0  0
  -12.5072   15.3851   74.0739 H   0  0  0  0  0  0  0  0  0  0  0  0
  -14.9437   14.6296   72.4422 H   0  0  0  0  0  0  0  0  0  0  0  0
  -14.2005   13.8347   73.8405 H   0  0  0  0  0  0  0  0  0  0  0  0
  -14.2578   11.7282   72.8348 H   0  0  0  0  0  0  0  0  0  0  0  0
  -13.0585   10.1679   71.2447 H   0  0  0  0  0  0  0  0  0  0  0  0
  -11.0516   13.4928   69.4948 H   0  0  0  0  0  0  0  0  0  0  0  0
   -9.2010   11.7208   69.8167 H   0  0  0  0  0  0  0  0  0  0  0  0
   -8.9081   10.4086   68.7321 H   0  0  0  0  0  0  0  0  0  0  0  0
  1  2  1  0  0  0  0
  2  3  1  0  0  0  0
  3  4  1  0  0  0  0
  4  5  1  0  0  0  0
  5  6  1  0  0  0  0
  6  7  2  0  0  0  0
  7  8  1  0  0  0  0
  8  9  2  0  0  0  0
  9 10  1  0  0  0  0
 10 11  2  0  0  0  0
  9 12  1  0  0  0  0
 12 13  2  0  0  0  0
 12 14  2  0  0  0  0
 12 15  1  0  0  0  0
 11  2  1  0  0  0  0
  6 11  1  0  0  0  0
  1 16  1  0  0  0  0
  1 17  1  0  0  0  0
  1 18  1  0  0  0  0
  3 19  1  0  0  0  0
  3 20  1  0  0  0  0
  4 21  1  0  0  0  0
  4 22  1  0  0  0  0
  5 23  1  0  0  0  0
  5 24  1  0  0  0  0
  7 25  1  0  0  0  0
  8 26  1  0  0  0  0
 10 27  1  0  0  0  0
 15 28  1  0  0  0  0
 15 29  1  0  0  0  0
M  END
> <Gold.Version>
2022.1.0

> <Gold.Id.Protein>
6LU7|6LU7_protein|mol2

> <Gold.PLP.Fitness>
48.3707

> <Gold.PLP.PLP>
-42.4722

> <Gold.PLP.part.hbond>
-1.8878

> <Gold.PLP.part.metal>
0.0000

> <Gold.PLP.part.buried>
-3.0024

> <Gold.PLP.part.nonpolar>
-38.8032

> <Gold.PLP.part.repulsive>
0.2185

> <Gold.PLP.ligand.clash>
0.0000

> <Gold.PLP.ligand.torsion>
1.0788

> <Gold.PLP.Chemscore.Hbond>
1.9663

> <Gold.PLP.Chemscore.CHOScore>
0.0000

> <Gold.PLP.Chemscore.Metal>
0.0000

> <Gold.Chemscore.Hbonds>
donor molecule, donor type, donor heavy atom, donor atom, acceptor molecule, acceptor atom, score
      L1  H    15    28       P1  1464  0.98
      P1  H  1281  4132       L1    13  0.99

> <Gold.PLP.Chemscore.Internal.Correction>
2.1572

> <Gold.Protein.RotatedTorsions>
[ 3973 1471 1470 1467 ] final -110.62 input   60.00 | X-H torsion
[ 3372  414  413  411 ] final  139.43 input   60.00 | X-H torsion
[ 4268 1114 1113 1110 ] final  -79.00 input   59.99 | X-H torsion
[ 4409  924  923  921 ] final  176.66 input   59.99 | X-H torsion
[ 4183 1244 1243 1241 ] final  -24.77 input   59.99 | X-H torsion
[ 3800  178  177  174 ] final  -50.71 input   60.00 | X-H torsion
[ 3793  171  170  167 ] final  -42.72 input   60.00 | X-H torsion
[ 3576  185  184  181 ] final   31.28 input   60.00 | X-H torsion
[ 3523  346  345  342 ] final -138.36 input   60.01 | X-H torsion
[ 3515  339  338  335 ] final -145.54 input   60.00 | X-H torsion
[ 3663  154  153  150 ] final -160.48 input   60.00 | X-H torsion
[ 4280 1130 1129 1126 ] final   74.33 input   60.00 | X-H torsion

> <Gold.Protein.ActiveResidues>
 VAL20   THR21   CYS22   GLY23   THR24   THR25   THR26   LEU27   ASN28   PRO39  
 ARG40   HIS41   VAL42   CYS44   THR45   SER46   ASP48   MET49   LEU50   PRO52  
 TYR54   TYR118  ASN119  ILE136  GLY138  SER139  PHE140  LEU141  ASN142  GLY143 
 SER144  CYS145  GLY146  SER147  TYR161  HIS163  HIS164  MET165  GLU166  LEU167 
 PRO168  THR169  GLY170  VAL171  HIS172  ALA173  PHE181  PHE185  VAL186  ASP187 
 ARG188  GLN189  THR190  ALA191  GLN192  ALA193 

> <Gold.Protein.RotatedAtoms>
  -14.5263   17.0698   76.3830 H   0  0  0  0  0  0  0  0  0  0  0  0  # atno 3372 bound_to 414 
   -2.6498   21.4047   75.7422 H   0  0  0  0  0  0  0  0  0  0  0  0  # atno 3515 bound_to 339 
   -2.2929   16.8250   72.6136 H   0  0  0  0  0  0  0  0  0  0  0  0  # atno 3523 bound_to 346 
   -8.7345   26.2199   64.0188 H   0  0  0  0  0  0  0  0  0  0  0  0  # atno 3576 bound_to 185 
   -6.7298   29.3057   65.1965 H   0  0  0  0  0  0  0  0  0  0  0  0  # atno 3663 bound_to 154 
   -3.0840   24.9526   72.5703 H   0  0  0  0  0  0  0  0  0  0  0  0  # atno 3793 bound_to 171 
   -6.3947   22.5840   71.3594 H   0  0  0  0  0  0  0  0  0  0  0  0  # atno 3800 bound_to 178 
  -15.2203    9.0671   78.0300 H   0  0  0  0  0  0  0  0  0  0  0  0  # atno 3973 bound_to 1471
  -20.8602   13.0627   64.6015 H   0  0  0  0  0  0  0  0  0  0  0  0  # atno 4183 bound_to 1244
  -12.3974   15.6831   61.6649 H   0  0  0  0  0  0  0  0  0  0  0  0  # atno 4268 bound_to 1114
  -15.5742   19.5485   59.6483 H   0  0  0  0  0  0  0  0  0  0  0  0  # atno 4280 bound_to 1130
  -10.8019   15.0320   57.9566 H   0  0  0  0  0  0  0  0  0  0  0  0  # atno 4409 bound_to 924 
  -15.7179    7.5288   78.2147 LP  0  0  0  0  0  0  0  0  0  0  0  0  # atno 4696 bound_to 1471
  -15.0969    8.0233   76.7877 LP  0  0  0  0  0  0  0  0  0  0  0  0  # atno 4697 bound_to 1471
  -14.0511   18.2793   75.4036 LP  0  0  0  0  0  0  0  0  0  0  0  0  # atno 4731 bound_to 414 
  -15.5198   17.5936   75.2055 LP  0  0  0  0  0  0  0  0  0  0  0  0  # atno 4732 bound_to 414 
  -13.6935   15.2507   60.7811 LP  0  0  0  0  0  0  0  0  0  0  0  0  # atno 4733 bound_to 1114
  -13.8299   16.4109   61.9222 LP  0  0  0  0  0  0  0  0  0  0  0  0  # atno 4734 bound_to 1114
  -10.8760   15.0223   56.3310 LP  0  0  0  0  0  0  0  0  0  0  0  0  # atno 4763 bound_to 924 
  -12.1903   15.4334   57.2087 LP  0  0  0  0  0  0  0  0  0  0  0  0  # atno 4764 bound_to 924 
  -19.8649   13.8693   63.5981 LP  0  0  0  0  0  0  0  0  0  0  0  0  # atno 4771 bound_to 1244
  -20.6386   12.5275   63.0808 LP  0  0  0  0  0  0  0  0  0  0  0  0  # atno 4772 bound_to 1244
   -7.6872   22.8575   72.3095 LP  0  0  0  0  0  0  0  0  0  0  0  0  # atno 4775 bound_to 178 
   -6.5371   24.0043   72.1408 LP  0  0  0  0  0  0  0  0  0  0  0  0  # atno 4776 bound_to 178 
   -1.7421   24.0423   72.4344 LP  0  0  0  0  0  0  0  0  0  0  0  0  # atno 4779 bound_to 171 
   -3.1324   23.5633   71.7245 LP  0  0  0  0  0  0  0  0  0  0  0  0  # atno 4780 bound_to 171 
   -7.9200   25.0541   63.2281 LP  0  0  0  0  0  0  0  0  0  0  0  0  # atno 4783 bound_to 185 
   -7.2914   26.5566   63.3466 LP  0  0  0  0  0  0  0  0  0  0  0  0  # atno 4784 bound_to 185 
   -2.2136   18.3531   73.1675 LP  0  0  0  0  0  0  0  0  0  0  0  0  # atno 4785 bound_to 346 
   -3.6604   17.6843   72.8126 LP  0  0  0  0  0  0  0  0  0  0  0  0  # atno 4786 bound_to 346 
   -3.3352   22.1631   74.4761 LP  0  0  0  0  0  0  0  0  0  0  0  0  # atno 4787 bound_to 339 
   -3.4869   20.5458   74.6425 LP  0  0  0  0  0  0  0  0  0  0  0  0  # atno 4788 bound_to 339 
   -8.2842   29.7527   65.0167 LP  0  0  0  0  0  0  0  0  0  0  0  0  # atno 4797 bound_to 154 
   -7.9186   28.2386   65.5071 LP  0  0  0  0  0  0  0  0  0  0  0  0  # atno 4798 bound_to 154 

$$$$
