unknown|prepared_Mpro-x0305|sdf|1|dock4
  -GOLD-   5 72214353D 1   1.00000     0.00000

 20 20  0  0  0  0  0  0  0  0  1 V2000
  -11.8737   13.4172   67.0624 C   0  0  0  0  0  0  0  0  0  0  0  0
  -11.9900   13.4213   68.5572 C   0  0  0  0  0  0  0  0  0  0  0  0
  -11.9479   14.7674   69.0395 N   0  0  0  0  0  0  0  0  0  0  0  0
  -12.0874   15.0498   70.4381 C   0  0  0  0  0  0  0  0  0  0  0  0
  -12.7518   14.1931   71.2915 C   0  0  0  0  0  0  0  0  0  0  0  0
  -12.9019   14.4391   72.6437 C   0  0  0  0  0  0  0  0  0  0  0  0
  -12.3656   15.5952   73.1800 C   0  0  0  0  0  0  0  0  0  0  0  0
  -12.4816   15.9190   74.5778 C   0  0  0  0  0  0  0  0  0  0  0  0
  -12.5823   16.1966   75.7008 N   0  0  0  0  0  0  0  0  0  0  0  0
  -11.7071   16.4319   72.3014 C   0  0  0  0  0  0  0  0  0  0  0  0
  -11.5767   16.1656   70.9880 N   0  0  0  0  0  0  0  0  0  0  0  0
  -11.9762   12.4173   66.6147 H   0  0  0  0  0  0  0  0  0  0  0  0
  -10.8552   13.8247   66.8190 H   0  0  0  0  0  0  0  0  0  0  0  0
  -12.6013   14.1481   66.6624 H   0  0  0  0  0  0  0  0  0  0  0  0
  -11.1228   12.8044   68.9376 H   0  0  0  0  0  0  0  0  0  0  0  0
  -12.8898   12.8582   68.9136 H   0  0  0  0  0  0  0  0  0  0  0  0
  -11.8145   15.5467   68.3637 H   0  0  0  0  0  0  0  0  0  0  0  0
  -13.1711   13.2798   70.8472 H   0  0  0  0  0  0  0  0  0  0  0  0
  -13.4220   13.7641   73.3002 H   0  0  0  0  0  0  0  0  0  0  0  0
  -11.2811   17.3514   72.7308 H   0  0  0  0  0  0  0  0  0  0  0  0
  1  2  1  0  0  0  0
  2  3  1  0  0  0  0
  3  4  1  0  0  0  0
  4  5  2  0  0  0  0
  5  6  1  0  0  0  0
  6  7  2  0  0  0  0
  7  8  1  0  0  0  0
  8  9  3  0  0  0  0
  7 10  1  0  0  0  0
 10 11  2  0  0  0  0
  4 11  1  0  0  0  0
  1 12  1  0  0  0  0
  1 13  1  0  0  0  0
  1 14  1  0  0  0  0
  2 15  1  0  0  0  0
  2 16  1  0  0  0  0
  3 17  1  0  0  0  0
  5 18  1  0  0  0  0
  6 19  1  0  0  0  0
 10 20  1  0  0  0  0
M  END
> <Gold.Version>
2022.1.0

> <Gold.Id.Protein>
6LU7|6LU7_protein|mol2

> <Gold.PLP.Fitness>
37.5752

> <Gold.PLP.PLP>
-35.8346

> <Gold.PLP.part.hbond>
-1.0696

> <Gold.PLP.part.metal>
0.0000

> <Gold.PLP.part.buried>
-6.1442

> <Gold.PLP.part.nonpolar>
-30.6299

> <Gold.PLP.part.repulsive>
0.9804

> <Gold.PLP.ligand.clash>
0.0000

> <Gold.PLP.ligand.torsion>
0.1382

> <Gold.PLP.Chemscore.Hbond>
0.6720

> <Gold.PLP.Chemscore.CHOScore>
0.0000

> <Gold.PLP.Chemscore.Metal>
0.0000

> <Gold.Chemscore.Hbonds>
donor molecule, donor type, donor heavy atom, donor atom, acceptor molecule, acceptor atom, score
      P1  H   414  3372       L1     9  0.67

> <Gold.PLP.Chemscore.Internal.Correction>
0.0011

> <Gold.Protein.RotatedTorsions>
[ 3973 1471 1470 1467 ] final   52.96 input   60.00 | X-H torsion
[ 3372  414  413  411 ] final  109.81 input   60.00 | X-H torsion
[ 4268 1114 1113 1110 ] final  115.55 input   59.99 | X-H torsion
[ 4409  924  923  921 ] final   20.04 input   59.99 | X-H torsion
[ 4183 1244 1243 1241 ] final  101.14 input   59.99 | X-H torsion
[ 3800  178  177  174 ] final  -70.88 input   60.00 | X-H torsion
[ 3793  171  170  167 ] final    3.92 input   60.00 | X-H torsion
[ 3576  185  184  181 ] final  -39.32 input   60.00 | X-H torsion
[ 3523  346  345  342 ] final   -0.43 input   60.01 | X-H torsion
[ 3515  339  338  335 ] final   10.01 input   60.00 | X-H torsion
[ 3663  154  153  150 ] final   43.42 input   60.00 | X-H torsion
[ 4280 1130 1129 1126 ] final  157.51 input   60.00 | X-H torsion

> <Gold.Protein.ActiveResidues>
 VAL20   THR21   CYS22   GLY23   THR24   THR25   THR26   LEU27   ASN28   PRO39  
 ARG40   HIS41   VAL42   CYS44   THR45   SER46   ASP48   MET49   LEU50   PRO52  
 TYR54   TYR118  ASN119  ILE136  GLY138  SER139  PHE140  LEU141  ASN142  GLY143 
 SER144  CYS145  GLY146  SER147  TYR161  HIS163  HIS164  MET165  GLU166  LEU167 
 PRO168  THR169  GLY170  VAL171  HIS172  ALA173  PHE181  PHE185  VAL186  ASP187 
 ARG188  GLN189  THR190  ALA191  GLN192  ALA193 

> <Gold.Protein.RotatedAtoms>
  -14.1328   17.3395   76.3455 H   0  0  0  0  0  0  0  0  0  0  0  0  # atno 3372 bound_to 414 
   -3.6555   20.9574   74.2804 H   0  0  0  0  0  0  0  0  0  0  0  0  # atno 3515 bound_to 339 
   -3.5953   17.9504   72.9160 H   0  0  0  0  0  0  0  0  0  0  0  0  # atno 3523 bound_to 346 
   -8.5725   25.2231   63.6307 H   0  0  0  0  0  0  0  0  0  0  0  0  # atno 3576 bound_to 185 
   -8.5610   29.2635   65.1685 H   0  0  0  0  0  0  0  0  0  0  0  0  # atno 3663 bound_to 154 
   -3.5286   24.5135   72.1716 H   0  0  0  0  0  0  0  0  0  0  0  0  # atno 3793 bound_to 171 
   -6.6513   22.3919   71.4280 H   0  0  0  0  0  0  0  0  0  0  0  0  # atno 3800 bound_to 178 
  -15.3608    7.4641   77.1107 H   0  0  0  0  0  0  0  0  0  0  0  0  # atno 3973 bound_to 1471
  -20.5794   12.5842   63.0289 H   0  0  0  0  0  0  0  0  0  0  0  0  # atno 4183 bound_to 1244
  -14.1627   15.7115   61.0884 H   0  0  0  0  0  0  0  0  0  0  0  0  # atno 4268 bound_to 1114
  -15.7150   18.6010   58.8565 H   0  0  0  0  0  0  0  0  0  0  0  0  # atno 4280 bound_to 1130
  -11.4349   15.1911   56.2432 H   0  0  0  0  0  0  0  0  0  0  0  0  # atno 4409 bound_to 924 
  -15.0086    9.0321   77.3662 LP  0  0  0  0  0  0  0  0  0  0  0  0  # atno 4696 bound_to 1471
  -15.6648    8.1343   78.5620 LP  0  0  0  0  0  0  0  0  0  0  0  0  # atno 4697 bound_to 1471
  -14.4198   18.3476   75.1008 LP  0  0  0  0  0  0  0  0  0  0  0  0  # atno 4731 bound_to 414 
  -15.5475   17.2537   75.5460 LP  0  0  0  0  0  0  0  0  0  0  0  0  # atno 4732 bound_to 414 
  -13.1376   16.3998   62.1483 LP  0  0  0  0  0  0  0  0  0  0  0  0  # atno 4733 bound_to 1114
  -12.6080   15.2333   61.1356 LP  0  0  0  0  0  0  0  0  0  0  0  0  # atno 4734 bound_to 1114
  -11.9857   15.3820   57.7624 LP  0  0  0  0  0  0  0  0  0  0  0  0  # atno 4763 bound_to 924 
  -10.4430   14.9135   57.5030 LP  0  0  0  0  0  0  0  0  0  0  0  0  # atno 4764 bound_to 924 
  -20.9051   12.9816   64.5730 LP  0  0  0  0  0  0  0  0  0  0  0  0  # atno 4771 bound_to 1244
  -19.8812   13.8971   63.6897 LP  0  0  0  0  0  0  0  0  0  0  0  0  # atno 4772 bound_to 1244
   -7.6665   23.1589   72.4425 LP  0  0  0  0  0  0  0  0  0  0  0  0  # atno 4775 bound_to 178 
   -6.2994   23.8964   71.9387 LP  0  0  0  0  0  0  0  0  0  0  0  0  # atno 4776 bound_to 178 
   -2.0091   24.6728   72.7317 LP  0  0  0  0  0  0  0  0  0  0  0  0  # atno 4779 bound_to 171 
   -2.4176   23.3750   71.8287 LP  0  0  0  0  0  0  0  0  0  0  0  0  # atno 4780 bound_to 171 
   -7.1734   25.8307   63.0640 LP  0  0  0  0  0  0  0  0  0  0  0  0  # atno 4783 bound_to 185 
   -8.2012   26.7840   63.9016 LP  0  0  0  0  0  0  0  0  0  0  0  0  # atno 4784 bound_to 185 
   -2.5678   16.7402   72.5588 LP  0  0  0  0  0  0  0  0  0  0  0  0  # atno 4785 bound_to 346 
   -1.9946   18.1639   73.1167 LP  0  0  0  0  0  0  0  0  0  0  0  0  # atno 4786 bound_to 346 
   -2.7904   20.8555   75.6549 LP  0  0  0  0  0  0  0  0  0  0  0  0  # atno 4787 bound_to 339 
   -3.0188   22.3038   74.9360 LP  0  0  0  0  0  0  0  0  0  0  0  0  # atno 4788 bound_to 339 
   -7.3345   28.2521   65.5160 LP  0  0  0  0  0  0  0  0  0  0  0  0  # atno 4797 bound_to 154 
   -7.0241   29.7817   65.0359 LP  0  0  0  0  0  0  0  0  0  0  0  0  # atno 4798 bound_to 154 

$$$$
